@<TRIPOS>MOLECULE
MOL004604
   22    21     1     1     0
SMALL
GASTEIGER


@<TRIPOS>ATOM
      1 C          -2.942626   -1.005501    0.192032 C.3       1 <1>        -0.065266 
      2 C          -1.474072   -1.500888    0.251219 C.3       1 <1>        -0.055527 
      3 C          -0.482121   -0.374414   -0.147789 C.3       1 <1>        -0.046624 
      4 C           0.988895   -0.865409   -0.079739 C.3       1 <1>         0.005803 
      5 C           1.961879    0.188459   -0.554220 C.2       1 <1>         0.133112 
      6 O           2.614840    0.025120   -1.572466 O.2       1 <1>        -0.297420 
      7 C           2.116740    1.454839    0.253269 C.3       1 <1>         0.002985 
      8 C           1.479016    2.655757   -0.490600 C.3       1 <1>        -0.058576 
      9 H          -3.629018   -1.818941    0.476026 H         1 <1>         0.022978 
     10 H          -3.195360   -0.674106   -0.827274 H         1 <1>         0.022978 
     11 H          -3.093052   -0.163125    0.885180 H         1 <1>         0.022978 
     12 H          -1.250086   -1.843954    1.275195 H         1 <1>         0.026275 
     13 H          -1.356735   -2.357866   -0.433053 H         1 <1>         0.026275 
     14 H          -0.701178   -0.039670   -1.175308 H         1 <1>         0.026918 
     15 H          -0.622116    0.480065    0.533403 H         1 <1>         0.026918 
     16 H           1.245144   -1.154201    0.951742 H         1 <1>         0.034152 
     17 H           1.102132   -1.757472   -0.716858 H         1 <1>         0.034152 
     18 H           1.659894    1.350199    1.250250 H         1 <1>         0.033883 
     19 H           3.193172    1.643170    0.394701 H         1 <1>         0.033883 
     20 H           1.616066    3.579965    0.092762 H         1 <1>         0.023374 
     21 H           1.955797    2.787735   -1.474698 H         1 <1>         0.023374 
     22 H           0.401241    2.493343   -0.642634 H         1 <1>         0.023374 
@<TRIPOS>BOND
     1    1    2 1    
     2    1    9 1    
     3    1   10 1    
     4    1   11 1    
     5    2    3 1    
     6    2   12 1    
     7    2   13 1    
     8    3    4 1    
     9    3   14 1    
    10    3   15 1    
    11    4    5 1    
    12    4   16 1    
    13    4   17 1    
    14    5    6 2    
    15    5    7 1    
    16    7    8 1    
    17    7   18 1    
    18    7   19 1    
    19    8   20 1    
    20    8   21 1    
    21    8   22 1    
@<TRIPOS>SUBSTRUCTURE
     1 ****        1 TEMP              0 ****  ****    0 ROOT 
@<TRIPOS>NORMAL
@<TRIPOS>FF_PBC
FORCE_FIELD_SETUP_FEATURE Force Field Setup information
v1.0  0 0.000000 0.000000 0.000000 0.000000 0.000000 0.000000 NONE 0 0 0 0 1 0 0 0 0 0 0 0 0
