@<TRIPOS>MOLECULE
MOL002112
   42    43     1     1     0
SMALL
GASTEIGER


@<TRIPOS>ATOM
      1 C           1.736263    1.246335    0.620799 C.2       1 <1>        -0.070098 
      2 C           0.335933    0.636606    0.714803 C.3       1 <1>        -0.005410 
      3 C           0.447525   -0.927625    0.781130 C.3       1 <1>        -0.022686 
      4 C           1.388577   -1.312754    1.963040 C.3       1 <1>        -0.043385 
      5 C           2.814302   -0.742178    1.752452 C.3       1 <1>        -0.033979 
      6 C           2.822684    0.617273    1.098100 C.2       1 <1>        -0.084469 
      7 C          -0.538790    0.996057   -0.534753 C.3       1 <1>        -0.036907 
      8 C          -1.871374    0.193095   -0.722109 C.3       1 <1>        -0.019594 
      9 C          -2.177516   -0.792577    0.445585 C.3       1 <1>        -0.045982 
     10 C          -0.955335   -1.595058    0.994939 C.3       1 <1>        -0.046285 
     11 C           1.870006    2.620917   -0.009749 C.3       1 <1>        -0.043251 
     12 C          -0.224996    1.283271    2.028915 C.3       1 <1>        -0.055333 
     13 C           1.078613   -1.510929   -0.530442 C.3       1 <1>        -0.058762 
     14 C          -2.037094   -0.360284   -2.134691 C.2       1 <1>        -0.076583 
     15 C          -2.235992    0.670250   -3.230947 C.3       1 <1>        -0.043777 
     16 C          -2.026237   -1.667756   -2.436392 C.2       1 <1>        -0.099446 
     17 H           1.446144   -2.408551    2.073669 H         1 <1>         0.027372 
     18 H           0.986422   -0.925366    2.911292 H         1 <1>         0.027372 
     19 H           3.394808   -1.419691    1.105496 H         1 <1>         0.030758 
     20 H           3.335921   -0.687376    2.722263 H         1 <1>         0.030758 
     21 H           3.803417    1.088603    1.019441 H         1 <1>         0.057172 
     22 H          -0.763592    2.074827   -0.542461 H         1 <1>         0.027944 
     23 H           0.086826    0.819782   -1.421429 H         1 <1>         0.027944 
     24 H          -2.703665    0.920043   -0.670555 H         1 <1>         0.034569 
     25 H          -2.612951   -0.203521    1.268582 H         1 <1>         0.027115 
     26 H          -2.990231   -1.480464    0.160436 H         1 <1>         0.027115 
     27 H          -1.139208   -1.762460    2.069474 H         1 <1>         0.027096 
     28 H          -0.943370   -2.602394    0.549424 H         1 <1>         0.027096 
     29 H           1.144575    3.319591    0.430621 H         1 <1>         0.027453 
     30 H           2.868375    3.056663    0.145719 H         1 <1>         0.027453 
     31 H           1.704567    2.568942   -1.095208 H         1 <1>         0.027453 
     32 H           0.561213    1.405612    2.791040 H         1 <1>         0.023829 
     33 H          -1.014754    0.700547    2.510961 H         1 <1>         0.023829 
     34 H          -0.629060    2.286945    1.832232 H         1 <1>         0.023829 
     35 H           1.366665   -2.563354   -0.384500 H         1 <1>         0.023534 
     36 H           0.376427   -1.493791   -1.370235 H         1 <1>         0.023534 
     37 H           1.974416   -0.962530   -0.853088 H         1 <1>         0.023534 
     38 H          -2.244463    0.225148   -4.237437 H         1 <1>         0.027436 
     39 H          -3.199819    1.179637   -3.081847 H         1 <1>         0.027436 
     40 H          -1.437658    1.425776   -3.209872 H         1 <1>         0.027436 
     41 H          -2.155295   -2.013776   -3.461267 H         1 <1>         0.053440 
     42 H          -1.890740   -2.455852   -1.700499 H         1 <1>         0.053440 
@<TRIPOS>BOND
     1    1    2 1    
     2    1    6 2    
     3    1   11 1    
     4    2    3 1    
     5    2    7 1    
     6    2   12 1    
     7    3    4 1    
     8    3   10 1    
     9    3   13 1    
    10    4    5 1    
    11    4   17 1    
    12    4   18 1    
    13    5    6 1    
    14    5   19 1    
    15    5   20 1    
    16    6   21 1    
    17    7    8 1    
    18    7   22 1    
    19    7   23 1    
    20    8    9 1    
    21    8   14 1    
    22    8   24 1    
    23    9   10 1    
    24    9   25 1    
    25    9   26 1    
    26   10   27 1    
    27   10   28 1    
    28   11   29 1    
    29   11   30 1    
    30   11   31 1    
    31   12   32 1    
    32   12   33 1    
    33   12   34 1    
    34   13   35 1    
    35   13   36 1    
    36   13   37 1    
    37   14   15 1    
    38   14   16 2    
    39   15   38 1    
    40   15   39 1    
    41   15   40 1    
    42   16   41 1    
    43   16   42 1    
@<TRIPOS>SUBSTRUCTURE
     1 ****        1 TEMP              0 ****  ****    0 ROOT 
@<TRIPOS>NORMAL
@<TRIPOS>FF_PBC
FORCE_FIELD_SETUP_FEATURE Force Field Setup information
v1.0  0 0.000000 0.000000 0.000000 0.000000 0.000000 0.000000 NONE 0 0 0 0 1 0 0 0 0 0 0 0 0
