@<TRIPOS>MOLECULE
MOL006936
   58    57     1     1     0
SMALL
GASTEIGER


@<TRIPOS>ATOM
      1 C          11.933329    0.491153   -0.000096 C.2       1 <1>         0.259588 
      2 C          10.675799   -0.341344    0.000256 C.3       1 <1>         0.033006 
      3 C           9.373687    0.505337   -0.000079 C.3       1 <1>        -0.044061 
      4 C           8.107945   -0.395306    0.000141 C.3       1 <1>        -0.052596 
      5 C           6.810827    0.459070   -0.000087 C.3       1 <1>        -0.053045 
      6 C           5.539832   -0.434018    0.000118 C.3       1 <1>        -0.053048 
      7 C           4.248018    0.428506   -0.000100 C.3       1 <1>        -0.052779 
      8 C           2.970852   -0.455633    0.000049 C.3       1 <1>        -0.049616 
      9 C           1.685516    0.415218   -0.000220 C.3       1 <1>        -0.034751 
     10 C           0.426562   -0.418849   -0.000146 C.2       1 <1>        -0.087640 
     11 C          -0.787694    0.146774   -0.000013 C.2       1 <1>        -0.084202 
     12 C          -2.050449   -0.682758    0.000054 C.3       1 <1>        -0.016545 
     13 C          -3.314959    0.144190   -0.000014 C.2       1 <1>        -0.084202 
     14 C          -4.527467   -0.425028   -0.000147 C.2       1 <1>        -0.087640 
     15 C          -5.790294    0.403454   -0.000222 C.3       1 <1>        -0.034751 
     16 C          -7.068961   -0.476727    0.000070 C.3       1 <1>        -0.049616 
     17 C          -8.355110    0.394485   -0.000081 C.3       1 <1>        -0.052788 
     18 C          -9.635413   -0.484917    0.000149 C.3       1 <1>        -0.053297 
     19 C         -10.920826    0.386853   -0.000072 C.3       1 <1>        -0.055911 
     20 C         -12.198357   -0.492506    0.000141 C.3       1 <1>        -0.065276 
     21 O          13.035916   -0.033820   -0.000715 O.2       1 <1>        -0.265177 
     22 O          11.777018    1.817104    0.000322 O.3       1 <1>        -0.331267 
     23 H          10.697696   -0.984991    0.893534 H         1 <1>         0.036600 
     24 H          10.697665   -0.985670   -0.892538 H         1 <1>         0.036600 
     25 H           9.362844    1.150368   -0.894388 H         1 <1>         0.027004 
     26 H           9.362745    1.150909    0.893833 H         1 <1>         0.027004 
     27 H           8.118982   -1.040906    0.893757 H         1 <1>         0.026540 
     28 H           8.119000   -1.041368   -0.893143 H         1 <1>         0.026540 
     29 H           6.801136    1.105101   -0.893492 H         1 <1>         0.026529 
     30 H           6.801109    1.105542    0.892998 H         1 <1>         0.026529 
     31 H           5.547271   -1.079728    0.893684 H         1 <1>         0.026529 
     32 H           5.547292   -1.080152   -0.893139 H         1 <1>         0.026529 
     33 H           4.242639    1.074522   -0.893495 H         1 <1>         0.026538 
     34 H           4.242586    1.074906    0.893019 H         1 <1>         0.026538 
     35 H           2.970898   -1.100826    0.894260 H         1 <1>         0.026822 
     36 H           2.970989   -1.101233   -0.893870 H         1 <1>         0.026822 
     37 H           1.679571    1.059305   -0.894325 H         1 <1>         0.030732 
     38 H           1.679466    1.059703    0.893599 H         1 <1>         0.030732 
     39 H           0.503697   -1.507104   -0.000207 H         1 <1>         0.056905 
     40 H          -0.849075    1.235718    0.000045 H         1 <1>         0.057203 
     41 H          -2.049745   -1.325509   -0.894323 H         1 <1>         0.034961 
     42 H          -2.049746   -1.325338    0.894551 H         1 <1>         0.034961 
     43 H          -3.256836    1.233315    0.000045 H         1 <1>         0.057203 
     44 H          -4.600082   -1.513613   -0.000209 H         1 <1>         0.056905 
     45 H          -5.788438    1.047519   -0.894405 H         1 <1>         0.030732 
     46 H          -5.788324    1.047937    0.893663 H         1 <1>         0.030732 
     47 H          -7.063227   -1.121982    0.894249 H         1 <1>         0.026822 
     48 H          -7.063325   -1.122409   -0.893817 H         1 <1>         0.026822 
     49 H          -8.357417    1.040419   -0.893551 H         1 <1>         0.026537 
     50 H          -8.357363    1.040816    0.893090 H         1 <1>         0.026537 
     51 H          -9.634232   -1.130733    0.893691 H         1 <1>         0.026520 
     52 H          -9.634244   -1.131184   -0.893078 H         1 <1>         0.026520 
     53 H         -10.928773    1.033147   -0.893695 H         1 <1>         0.026265 
     54 H         -10.928776    1.033595    0.893222 H         1 <1>         0.026265 
     55 H         -13.097205    0.144392   -0.000031 H         1 <1>         0.022978 
     56 H         -12.223678   -1.133311    0.895325 H         1 <1>         0.022978 
     57 H         -12.223663   -1.133768   -0.894721 H         1 <1>         0.022978 
     58 H          12.612298    2.271771    0.000049 H         1 <1>         0.220208 
@<TRIPOS>BOND
     1    1    2 1    
     2    1   21 2    
     3    1   22 1    
     4    2    3 1    
     5    2   23 1    
     6    2   24 1    
     7    3    4 1    
     8    3   25 1    
     9    3   26 1    
    10    4    5 1    
    11    4   27 1    
    12    4   28 1    
    13    5    6 1    
    14    5   29 1    
    15    5   30 1    
    16    6    7 1    
    17    6   31 1    
    18    6   32 1    
    19    7    8 1    
    20    7   33 1    
    21    7   34 1    
    22    8    9 1    
    23    8   35 1    
    24    8   36 1    
    25    9   10 1    
    26    9   37 1    
    27    9   38 1    
    28   10   11 2    
    29   10   39 1    
    30   11   12 1    
    31   11   40 1    
    32   12   13 1    
    33   12   41 1    
    34   12   42 1    
    35   13   14 2    
    36   13   43 1    
    37   14   15 1    
    38   14   44 1    
    39   15   16 1    
    40   15   45 1    
    41   15   46 1    
    42   16   17 1    
    43   16   47 1    
    44   16   48 1    
    45   17   18 1    
    46   17   49 1    
    47   17   50 1    
    48   18   19 1    
    49   18   51 1    
    50   18   52 1    
    51   19   20 1    
    52   19   53 1    
    53   19   54 1    
    54   20   55 1    
    55   20   56 1    
    56   20   57 1    
    57   22   58 1    
@<TRIPOS>SUBSTRUCTURE
     1 ****        1 TEMP              0 ****  ****    0 ROOT 
@<TRIPOS>NORMAL
@<TRIPOS>FF_PBC
FORCE_FIELD_SETUP_FEATURE Force Field Setup information
v1.0  0 0.000000 0.000000 0.000000 0.000000 0.000000 0.000000 NONE 0 0 0 0 1 0 0 0 0 0 0 0 0
