@<TRIPOS>MOLECULE
MOL004815
   42    44     1     1     0
SMALL
GASTEIGER


@<TRIPOS>ATOM
      1 O          -4.272646   -1.181709   -0.258710 O.3       1 <1>        -0.334208 
      2 O           3.492201    2.644950    0.035750 O.2       1 <1>        -0.287193 
      3 O           4.745112    0.402903   -2.249921 O.3       1 <1>        -0.359040 
      4 O           8.268921   -1.713016    0.453646 O.3       1 <1>        -0.359749 
      5 C          -5.487278   -0.470607    0.057907 C.3       1 <1>         0.088835 
      6 C          -5.307313    0.974494    0.467099 C.2       1 <1>        -0.051997 
      7 C          -3.027952   -0.548215   -0.276029 C.ar      1 <1>         0.084431 
      8 C          -2.888946    0.791663    0.091257 C.ar      1 <1>         0.005352 
      9 C          -6.154098   -1.234944    1.230638 C.3       1 <1>        -0.031936 
     10 C          -6.386223   -0.520919   -1.203602 C.3       1 <1>        -0.031936 
     11 C          -4.115217    1.575357    0.488390 C.2       1 <1>        -0.053359 
     12 C          -1.549339    1.428315    0.098900 C.ar      1 <1>        -0.044971 
     13 C          -1.829745   -1.314004   -0.686711 C.ar      1 <1>        -0.030503 
     14 C          -0.401123    0.699393   -0.255636 C.ar      1 <1>        -0.024201 
     15 C          -0.564356   -0.715333   -0.683699 C.ar      1 <1>        -0.052116 
     16 C           0.949328    1.386178   -0.180581 C.2       1 <1>        -0.050938 
     17 C           2.120572    0.740793   -0.085483 C.2       1 <1>        -0.013708 
     18 C           4.693414    0.615433    0.141983 C.ar      1 <1>         0.051478 
     19 C           3.424134    1.426504    0.022432 C.2       1 <1>         0.188543 
     20 C           5.307830    0.129960   -1.001840 C.ar      1 <1>         0.085798 
     21 C           5.273170    0.340902    1.477986 C.ar      1 <1>        -0.046025 
     22 C           6.551179   -0.673672   -0.882824 C.ar      1 <1>        -0.001470 
     23 C           6.441817   -0.420756    1.593111 C.ar      1 <1>        -0.031105 
     24 C           7.103609   -0.947940    0.371684 C.ar      1 <1>         0.075057 
     25 H          -6.190658    1.546906    0.753920 H         1 <1>         0.060052 
     26 H          -5.501586   -1.189916    2.116234 H         1 <1>         0.026052 
     27 H          -7.129573   -0.793270    1.485666 H         1 <1>         0.026052 
     28 H          -6.304346   -2.291391    0.961443 H         1 <1>         0.026052 
     29 H          -6.543627   -1.564235   -1.516366 H         1 <1>         0.026052 
     30 H          -7.366016   -0.059761   -1.006427 H         1 <1>         0.026052 
     31 H          -5.896783    0.020999   -2.027083 H         1 <1>         0.026052 
     32 H          -4.020538    2.619684    0.787521 H         1 <1>         0.062202 
     33 H          -1.461884    2.467962    0.396486 H         1 <1>         0.063010 
     34 H          -1.944672   -2.347359   -0.995685 H         1 <1>         0.064365 
     35 H           0.288318   -1.300309   -1.005188 H         1 <1>         0.062423 
     36 H           0.961321    2.477280   -0.188227 H         1 <1>         0.062459 
     37 H           2.168276   -0.345158   -0.065374 H         1 <1>         0.065602 
     38 H           4.787394    0.731726    2.367141 H         1 <1>         0.062620 
     39 H           7.043359   -1.059347   -1.768960 H         1 <1>         0.066921 
     40 H           6.859867   -0.622726    2.573457 H         1 <1>         0.064341 
     41 H           5.312486    0.178578   -2.979324 H         1 <1>         0.217341 
     42 H           8.549709   -1.885891    1.345117 H         1 <1>         0.217315 
@<TRIPOS>BOND
     1    1    5 1    
     2    7    1 1    
     3   19    2 2    
     4   20    3 1    
     5    3   41 1    
     6   24    4 1    
     7    4   42 1    
     8    6    5 1    
     9    5    9 1    
    10    5   10 1    
    11   11    6 2    
    12    6   25 1    
    13    8    7 2    
    14   13    7 1    
    15    8   11 1    
    16   12    8 1    
    17    9   26 1    
    18    9   27 1    
    19    9   28 1    
    20   10   29 1    
    21   10   30 1    
    22   10   31 1    
    23   11   32 1    
    24   14   12 2    
    25   12   33 1    
    26   15   13 2    
    27   13   34 1    
    28   14   15 1    
    29   16   14 1    
    30   15   35 1    
    31   17   16 2    
    32   16   36 1    
    33   19   17 1    
    34   17   37 1    
    35   18   19 1    
    36   20   18 2    
    37   18   21 1    
    38   22   20 1    
    39   21   23 2    
    40   21   38 1    
    41   22   24 2    
    42   22   39 1    
    43   23   24 1    
    44   23   40 1    
@<TRIPOS>SUBSTRUCTURE
     1 ****        1 TEMP              0 ****  ****    0 ROOT 
@<TRIPOS>NORMAL
@<TRIPOS>FF_PBC
FORCE_FIELD_SETUP_FEATURE Force Field Setup information
v1.0  0 0.000000 0.000000 0.000000 0.000000 0.000000 0.000000 NONE 0 0 0 0 1 0 0 0 0 0 0 0 0
