@<TRIPOS>MOLECULE
MOL000673
   39    41     1     1     0
SMALL
GASTEIGER


@<TRIPOS>ATOM
      1 C           0.075019   -0.658050   -0.022135 C.3       1 <1>        -0.002316 
      2 C          -0.078497    0.822541    0.213066 C.2       1 <1>        -0.060873 
      3 C           1.266935   -0.639162   -1.004975 C.3       1 <1>        -0.039536 
      4 C           0.740822   -1.176410    1.288503 C.3       1 <1>        -0.042871 
      5 C          -1.257393   -1.328380   -0.494307 C.3       1 <1>        -0.025258 
      6 C           1.250841    1.528149    0.159077 C.3       1 <1>        -0.010500 
      7 C          -1.251822    1.421561    0.448872 C.2       1 <1>        -0.083678 
      8 C           2.134550    0.260112   -0.087644 C.3       1 <1>        -0.031344 
      9 C           2.201665   -0.652009    1.168697 C.3       1 <1>        -0.048597 
     10 C          -2.370994   -0.875118    0.495080 C.3       1 <1>        -0.043627 
     11 C          -1.178129   -2.884896   -0.498682 C.3       1 <1>        -0.059005 
     12 C          -1.615200   -0.868906   -1.941830 C.3       1 <1>        -0.059005 
     13 C           1.567541    2.281306    1.483831 C.3       1 <1>        -0.055823 
     14 C           1.327620    2.533407   -1.028620 C.3       1 <1>        -0.055823 
     15 C          -2.557460    0.667110    0.492787 C.3       1 <1>        -0.033962 
     16 H           3.132282    0.501517   -0.488989 H         1 <1>         0.030928 
     17 H           1.694144   -1.640004   -1.180685 H         1 <1>         0.027675 
     18 H           1.053992   -0.185936   -1.981964 H         1 <1>         0.027675 
     19 H           0.762862   -2.273767    1.353936 H         1 <1>         0.027392 
     20 H           0.237931   -0.784893    2.187702 H         1 <1>         0.027392 
     21 H          -1.279284    2.499093    0.610475 H         1 <1>         0.057198 
     22 H           2.578610   -0.157375    2.075299 H         1 <1>         0.026847 
     23 H           2.894509   -1.485071    0.956221 H         1 <1>         0.026847 
     24 H          -2.095294   -1.195361    1.512383 H         1 <1>         0.027364 
     25 H          -3.330856   -1.358331    0.248972 H         1 <1>         0.027364 
     26 H          -1.130380   -3.299479    0.518311 H         1 <1>         0.023525 
     27 H          -2.074391   -3.309523   -0.976636 H         1 <1>         0.023525 
     28 H          -0.295891   -3.225952   -1.060460 H         1 <1>         0.023525 
     29 H          -0.948638   -1.344962   -2.676526 H         1 <1>         0.023525 
     30 H          -2.646670   -1.159176   -2.193651 H         1 <1>         0.023525 
     31 H          -1.527324    0.220570   -2.063239 H         1 <1>         0.023525 
     32 H           1.026107    3.237975    1.529997 H         1 <1>         0.023812 
     33 H           2.646111    2.491979    1.542221 H         1 <1>         0.023812 
     34 H           1.262373    1.704752    2.368765 H         1 <1>         0.023812 
     35 H           2.352773    2.925349   -1.110305 H         1 <1>         0.023812 
     36 H           1.053011    2.086269   -1.992599 H         1 <1>         0.023812 
     37 H           0.647107    3.381592   -0.861206 H         1 <1>         0.023812 
     38 H          -3.119109    0.964771    1.393410 H         1 <1>         0.030758 
     39 H          -3.149776    0.974507   -0.383552 H         1 <1>         0.030758 
@<TRIPOS>BOND
     1    1    2 1    
     2    1    3 1    
     3    1    4 1    
     4    1    5 1    
     5    2    6 1    
     6    2    7 2    
     7    3    8 1    
     8    3   17 1    
     9    3   18 1    
    10    4    9 1    
    11    4   19 1    
    12    4   20 1    
    13    5   10 1    
    14    5   11 1    
    15    5   12 1    
    16    6    8 1    
    17    6   13 1    
    18    6   14 1    
    19    7   15 1    
    20    7   21 1    
    21    8    9 1    
    22    8   16 1    
    23    9   22 1    
    24    9   23 1    
    25   10   15 1    
    26   10   24 1    
    27   10   25 1    
    28   11   26 1    
    29   11   27 1    
    30   11   28 1    
    31   12   29 1    
    32   12   30 1    
    33   12   31 1    
    34   13   32 1    
    35   13   33 1    
    36   13   34 1    
    37   14   35 1    
    38   14   36 1    
    39   14   37 1    
    40   15   38 1    
    41   15   39 1    
@<TRIPOS>SUBSTRUCTURE
     1 ****        1 TEMP              0 ****  ****    0 ROOT 
@<TRIPOS>NORMAL
@<TRIPOS>FF_PBC
FORCE_FIELD_SETUP_FEATURE Force Field Setup information
v1.0  0 0.000000 0.000000 0.000000 0.000000 0.000000 0.000000 NONE 0 0 0 0 1 0 0 0 0 0 0 0 0
