@<TRIPOS>MOLECULE
MOL002300
   51    53     1     1     0
SMALL
GASTEIGER


@<TRIPOS>ATOM
      1 C          -2.540798   -0.684073   -1.704879 C.3       1 <1>        -0.050166 
      2 C          -1.351369   -0.821143   -2.691485 C.3       1 <1>        -0.049692 
      3 C          -0.069950   -0.037867   -2.255133 C.3       1 <1>        -0.033127 
      4 C           0.364592   -0.371273   -0.775459 C.3       1 <1>         0.031057 
      5 C          -0.859549   -0.076785    0.171714 C.3       1 <1>         0.086487 
      6 C          -2.106036   -0.921523   -0.233036 C.3       1 <1>        -0.022767 
      7 C           1.590554    0.486108   -0.283646 C.3       1 <1>         0.110147 
      8 C           1.183686    1.908954    0.062294 C.ar      1 <1>         0.092564 
      9 C          -0.045339    2.339606    0.302841 C.ar      1 <1>         0.340918 
     10 C          -1.261612    1.433806    0.226747 C.3       1 <1>         0.093077 
     11 C           2.059839    3.075005    0.226941 C.ar      1 <1>         0.059729 
     12 C           1.225053    4.091624    0.558879 C.ar      1 <1>         0.324705 
     13 O          -0.115686    3.699855    0.623527 O.2       1 <1>        -0.216996 
     14 C           1.016246   -0.276659   -3.350592 C.3       1 <1>        -0.061736 
     15 C           0.802922   -1.869100   -0.663253 C.3       1 <1>        -0.053955 
     16 O           2.097520    0.148560    1.026792 O.3       1 <1>        -0.305978 
     17 O          -0.452277   -0.455093    1.501351 O.3       1 <1>        -0.387302 
     18 C           3.580047    3.112088    0.065933 C.3       1 <1>        -0.030834 
     19 C           3.084245   -0.760139    1.068730 C.2       1 <1>         0.265325 
     20 C           3.509249   -1.171569    2.459549 C.3       1 <1>         0.039159 
     21 C           2.279227   -1.587240    3.312585 C.3       1 <1>        -0.053626 
     22 C           4.549779   -2.324837    2.414173 C.3       1 <1>        -0.053626 
     23 O           3.623615   -1.218916    0.073920 O.2       1 <1>        -0.264666 
     24 H          -0.301767    1.037433   -2.310194 H         1 <1>         0.030520 
     25 H           2.405273    0.560329   -1.016713 H         1 <1>         0.066199 
     26 H          -3.317389   -1.421989   -1.971736 H         1 <1>         0.026626 
     27 H          -3.004592    0.305967   -1.828007 H         1 <1>         0.026626 
     28 H          -1.122351   -1.888504   -2.829708 H         1 <1>         0.026806 
     29 H          -1.693125   -0.455002   -3.675156 H         1 <1>         0.026806 
     30 H          -2.953243   -0.667665    0.425302 H         1 <1>         0.029315 
     31 H          -1.902015   -1.990066   -0.077004 H         1 <1>         0.029315 
     32 H          -1.897922    1.639049    1.101199 H         1 <1>         0.042860 
     33 H          -1.797127    1.791625   -0.659752 H         1 <1>         0.042860 
     34 H           1.558644    5.105954    0.756950 H         1 <1>         0.176276 
     35 H           0.612349   -0.014127   -4.341535 H         1 <1>         0.023261 
     36 H           1.317874   -1.332809   -3.396758 H         1 <1>         0.023261 
     37 H           1.912450    0.341144   -3.209530 H         1 <1>         0.023261 
     38 H           0.078857   -2.590593   -1.055708 H         1 <1>         0.023696 
     39 H           1.738220   -2.041397   -1.212229 H         1 <1>         0.023696 
     40 H           0.975652   -2.148913    0.384969 H         1 <1>         0.023696 
     41 H          -1.138872   -0.419253    2.160019 H         1 <1>         0.210202 
     42 H           3.998168    4.039987    0.485552 H         1 <1>         0.028040 
     43 H           4.020099    2.250970    0.591260 H         1 <1>         0.028040 
     44 H           3.837416    3.051036   -1.001980 H         1 <1>         0.028040 
     45 H           3.985692   -0.294772    2.931273 H         1 <1>         0.039643 
     46 H           2.593572   -1.869684    4.330013 H         1 <1>         0.023709 
     47 H           1.563666   -0.754031    3.395792 H         1 <1>         0.023709 
     48 H           1.767980   -2.445834    2.851310 H         1 <1>         0.023709 
     49 H           4.861702   -2.602791    3.433219 H         1 <1>         0.023709 
     50 H           5.445256   -2.015629    1.851598 H         1 <1>         0.023709 
     51 H           4.116477   -3.211623    1.925357 H         1 <1>         0.023709 
@<TRIPOS>BOND
     1    1    2 1    
     2    1    6 1    
     3    1   26 1    
     4    1   27 1    
     5    2    3 1    
     6    2   28 1    
     7    2   29 1    
     8    3    4 1    
     9    3   14 1    
    10    3   24 1    
    11    4    5 1    
    12    4    7 1    
    13    4   15 1    
    14    5    6 1    
    15    5   10 1    
    16    5   17 1    
    17    6   30 1    
    18    6   31 1    
    19    7    8 1    
    20    7   16 1    
    21    7   25 1    
    22    8    9 2    
    23    8   11 1    
    24    9   10 1    
    25    9   13 1    
    26   10   32 1    
    27   10   33 1    
    28   11   12 2    
    29   11   18 1    
    30   12   13 1    
    31   12   34 1    
    32   14   35 1    
    33   14   36 1    
    34   14   37 1    
    35   15   38 1    
    36   15   39 1    
    37   15   40 1    
    38   16   19 1    
    39   17   41 1    
    40   18   42 1    
    41   18   43 1    
    42   18   44 1    
    43   19   20 1    
    44   19   23 2    
    45   20   21 1    
    46   20   22 1    
    47   20   45 1    
    48   21   46 1    
    49   21   47 1    
    50   21   48 1    
    51   22   49 1    
    52   22   50 1    
    53   22   51 1    
@<TRIPOS>SUBSTRUCTURE
     1 ****        1 TEMP              0 ****  ****    0 ROOT 
@<TRIPOS>NORMAL
@<TRIPOS>FF_PBC
FORCE_FIELD_SETUP_FEATURE Force Field Setup information
v1.0  0 0.000000 0.000000 0.000000 0.000000 0.000000 0.000000 NONE 0 0 0 0 1 0 0 0 0 0 0 0 0
