@<TRIPOS>MOLECULE
MOL004802
   31    30     1     1     0
SMALL
GASTEIGER


@<TRIPOS>ATOM
      1 C           0.026967    0.772649    0.000159 C.3       1 <1>         0.065844 
      2 C          -1.228903   -0.059064    0.000078 C.2       1 <1>        -0.062616 
      3 C          -2.449986    0.491418   -0.000308 C.2       1 <1>        -0.085799 
      4 C          -3.698891   -0.357397   -0.000364 C.3       1 <1>        -0.034939 
      5 C          -4.990260    0.503750    0.000123 C.3       1 <1>        -0.052468 
      6 C          -6.261154   -0.385561    0.000057 C.3       1 <1>        -0.064998 
      7 O           1.162751   -0.114894   -0.000047 O.3       1 <1>        -0.375770 
      8 C           2.429972    0.571944    0.000055 C.3       1 <1>         0.048055 
      9 C           3.551146   -0.497238   -0.000099 C.3       1 <1>        -0.029698 
     10 C           4.963174    0.148699    0.000051 C.3       1 <1>        -0.053832 
     11 C           6.075197   -0.932487   -0.000056 C.3       1 <1>        -0.065205 
     12 H           0.030494    1.409892   -0.898797 H         1 <1>         0.060388 
     13 H           0.030543    1.409520    0.899358 H         1 <1>         0.060388 
     14 H          -1.128448   -1.145396    0.000350 H         1 <1>         0.059157 
     15 H          -2.539385    1.578865   -0.000579 H         1 <1>         0.056966 
     16 H          -3.687825   -1.001297   -0.894683 H         1 <1>         0.030724 
     17 H          -3.687578   -1.001916    0.893478 H         1 <1>         0.030724 
     18 H          -4.999548    1.149369    0.894351 H         1 <1>         0.026558 
     19 H          -4.999858    1.149914   -0.893780 H         1 <1>         0.026558 
     20 H          -7.164871    0.244275    0.000339 H         1 <1>         0.022987 
     21 H          -6.281507   -1.026645   -0.895125 H         1 <1>         0.022987 
     22 H          -6.281254   -1.027113    0.894864 H         1 <1>         0.022987 
     23 H           2.527036    1.204502    0.897915 H         1 <1>         0.055977 
     24 H           2.527041    1.204770   -0.897576 H         1 <1>         0.055977 
     25 H           3.432417   -1.132819   -0.893007 H         1 <1>         0.028723 
     26 H           3.432363   -1.133116    0.892633 H         1 <1>         0.028723 
     27 H           5.078553    0.784413    0.893896 H         1 <1>         0.026335 
     28 H           5.078615    0.784671   -0.893543 H         1 <1>         0.026335 
     29 H           7.068298   -0.455983    0.000054 H         1 <1>         0.022978 
     30 H           5.992233   -1.568631   -0.895165 H         1 <1>         0.022978 
     31 H           5.992167   -1.568895    0.894868 H         1 <1>         0.022978 
@<TRIPOS>BOND
     1    1    2 1    
     2    1    7 1    
     3    1   12 1    
     4    1   13 1    
     5    2    3 2    
     6    2   14 1    
     7    3    4 1    
     8    3   15 1    
     9    4    5 1    
    10    4   16 1    
    11    4   17 1    
    12    5    6 1    
    13    5   18 1    
    14    5   19 1    
    15    6   20 1    
    16    6   21 1    
    17    6   22 1    
    18    7    8 1    
    19    8    9 1    
    20    8   23 1    
    21    8   24 1    
    22    9   10 1    
    23    9   25 1    
    24    9   26 1    
    25   10   11 1    
    26   10   27 1    
    27   10   28 1    
    28   11   29 1    
    29   11   30 1    
    30   11   31 1    
@<TRIPOS>SUBSTRUCTURE
     1 ****        1 TEMP              0 ****  ****    0 ROOT 
@<TRIPOS>NORMAL
@<TRIPOS>FF_PBC
FORCE_FIELD_SETUP_FEATURE Force Field Setup information
v1.0  0 0.000000 0.000000 0.000000 0.000000 0.000000 0.000000 NONE 0 0 0 0 1 0 0 0 0 0 0 0 0
