@<TRIPOS>MOLECULE
MOL007147
   54    56     1     1     0
SMALL
GASTEIGER


@<TRIPOS>ATOM
      1 C          -1.432388    0.478838    0.732434 C.3       1 <1>         0.048583 
      2 C          -1.516691   -0.924932    1.370659 C.3       1 <1>         0.027831 
      3 C           0.027573    0.964284    0.673619 C.3       1 <1>         0.173313 
      4 C          -2.426672    1.375718    1.511464 C.3       1 <1>         0.073734 
      5 C          -0.358292   -1.190717    2.303515 C.2       1 <1>         0.052723 
      6 C          -2.893181   -0.948584    2.097639 C.3       1 <1>         0.065378 
      7 O           0.739570    0.084582   -0.219575 O.3       1 <1>        -0.319340 
      8 O           0.673281    0.900443    1.955931 O.3       1 <1>        -0.321880 
      9 C          -3.594076    0.378831    1.711343 C.3       1 <1>         0.002884 
     10 C          -1.885010    1.908444    2.868089 C.3       1 <1>        -0.035545 
     11 O          -2.809692    2.482529    0.677430 O.3       1 <1>        -0.388295 
     12 C           0.605379   -0.293797    2.562595 C.2       1 <1>         0.052335 
     13 C          -0.298950   -2.502773    2.979188 C.2       1 <1>         0.291797 
     14 O          -3.660955   -2.091754    1.683301 O.3       1 <1>        -0.391077 
     15 C           2.073522    0.542081   -0.509480 C.3       1 <1>         0.190790 
     16 O           0.532943   -3.478470    2.575988 O.3       1 <1>        -0.314939 
     17 O          -1.026918   -2.710829    3.934870 O.2       1 <1>        -0.259506 
     18 O           2.049601    1.788955   -1.232072 O.3       1 <1>        -0.340431 
     19 C           2.892073   -0.547747   -1.251179 C.3       1 <1>         0.134212 
     20 C           1.349550   -3.174606    1.426716 C.3       1 <1>         0.046187 
     21 C           1.562308    1.688991   -2.589125 C.3       1 <1>         0.113007 
     22 C           2.364063   -0.736220   -2.696100 C.3       1 <1>         0.114063 
     23 O           4.290238   -0.186341   -1.224481 O.3       1 <1>        -0.384103 
     24 C           2.348244    0.637535   -3.420904 C.3       1 <1>         0.111896 
     25 C           0.020408    1.541416   -2.704618 C.3       1 <1>         0.073015 
     26 O           1.070168   -1.370370   -2.655446 O.3       1 <1>        -0.386401 
     27 O           3.689395    1.132777   -3.621216 O.3       1 <1>        -0.386488 
     28 O          -0.362175    1.671631   -4.088214 O.3       1 <1>        -0.392366 
     29 H          -1.812998    0.423170   -0.302602 H         1 <1>         0.038456 
     30 H          -1.485759   -1.693298    0.580013 H         1 <1>         0.038161 
     31 H           0.041426    2.007311    0.316598 H         1 <1>         0.091841 
     32 H          -2.749907   -0.970536    3.192409 H         1 <1>         0.060018 
     33 H          -4.113750    0.241051    0.748892 H         1 <1>         0.031802 
     34 H          -4.331056    0.713319    2.458444 H         1 <1>         0.031802 
     35 H          -2.686178    2.439623    3.403624 H         1 <1>         0.025733 
     36 H          -1.069178    2.624236    2.689086 H         1 <1>         0.025733 
     37 H          -1.515459    1.106116    3.520590 H         1 <1>         0.025733 
     38 H          -3.498683    3.012556    1.064896 H         1 <1>         0.210163 
     39 H           1.374504   -0.510017    3.304751 H         1 <1>         0.089058 
     40 H          -4.518125   -2.131446    2.096431 H         1 <1>         0.209803 
     41 H           2.611012    0.727172    0.435641 H         1 <1>         0.093840 
     42 H           2.762994   -1.498096   -0.706776 H         1 <1>         0.067096 
     43 H           1.930508   -4.079624    1.195457 H         1 <1>         0.052972 
     44 H           0.745701   -2.923878    0.540397 H         1 <1>         0.052972 
     45 H           2.062543   -2.363047    1.635039 H         1 <1>         0.052972 
     46 H           1.786256    2.670589   -3.038780 H         1 <1>         0.064668 
     47 H           3.048672   -1.419547   -3.228073 H         1 <1>         0.064758 
     48 H           4.862852   -0.826290   -1.634776 H         1 <1>         0.210110 
     49 H           1.873667    0.528814   -4.411552 H         1 <1>         0.064673 
     50 H          -0.454018    2.341609   -2.111956 H         1 <1>         0.058370 
     51 H          -0.327176    0.573299   -2.321800 H         1 <1>         0.058370 
     52 H           0.704011   -1.544566   -3.517689 H         1 <1>         0.210005 
     53 H           4.238292    0.565721   -4.153207 H         1 <1>         0.210004 
     54 H          -1.304117    1.618420   -4.225130 H         1 <1>         0.209508 
@<TRIPOS>BOND
     1    1    2 1    
     2    1    3 1    
     3    1    4 1    
     4    1   29 1    
     5    2    5 1    
     6    2    6 1    
     7    2   30 1    
     8    3    7 1    
     9    3    8 1    
    10    3   31 1    
    11    4    9 1    
    12    4   10 1    
    13    4   11 1    
    14    5   12 2    
    15    5   13 1    
    16    6    9 1    
    17    6   14 1    
    18    6   32 1    
    19    7   15 1    
    20    8   12 1    
    21    9   33 1    
    22    9   34 1    
    23   10   35 1    
    24   10   36 1    
    25   10   37 1    
    26   11   38 1    
    27   12   39 1    
    28   13   16 1    
    29   13   17 2    
    30   14   40 1    
    31   15   18 1    
    32   15   19 1    
    33   15   41 1    
    34   16   20 1    
    35   18   21 1    
    36   19   22 1    
    37   19   23 1    
    38   19   42 1    
    39   20   43 1    
    40   20   44 1    
    41   20   45 1    
    42   21   24 1    
    43   21   25 1    
    44   21   46 1    
    45   22   24 1    
    46   22   26 1    
    47   22   47 1    
    48   23   48 1    
    49   24   27 1    
    50   24   49 1    
    51   25   28 1    
    52   25   50 1    
    53   25   51 1    
    54   26   52 1    
    55   27   53 1    
    56   28   54 1    
@<TRIPOS>SUBSTRUCTURE
     1 ****        1 TEMP              0 ****  ****    0 ROOT 
@<TRIPOS>NORMAL
@<TRIPOS>FF_PBC
FORCE_FIELD_SETUP_FEATURE Force Field Setup information
v1.0  0 0.000000 0.000000 0.000000 0.000000 0.000000 0.000000 NONE 0 0 0 0 1 0 0 0 0 0 0 0 0
