@<TRIPOS>MOLECULE
MOL000168
   26    27     1     1     0
SMALL
GASTEIGER


@<TRIPOS>ATOM
      1 C          -0.983455   -0.252255    1.165383 C.3       1 <1>        -0.028288 
      2 C           0.253723    0.673761    1.176925 C.3       1 <1>        -0.013903 
      3 C           0.440507   -0.865300    1.247266 C.3       1 <1>        -0.024979 
      4 C          -1.839791   -0.112423   -0.120820 C.3       1 <1>        -0.045473 
      5 C           0.626795    1.401223   -0.088214 C.2       1 <1>        -0.081136 
      6 C           0.816516   -1.437064    2.640487 C.3       1 <1>        -0.058998 
      7 C           0.957469   -1.663339    0.021063 C.3       1 <1>        -0.058998 
      8 C          -1.112971    0.241176   -1.445036 C.3       1 <1>        -0.031710 
      9 C           0.018683    1.223008   -1.268463 C.2       1 <1>        -0.076231 
     10 C           0.440492    1.978021   -2.509308 C.3       1 <1>        -0.043778 
     11 H          -1.546010   -0.274071    2.113728 H         1 <1>         0.031202 
     12 H           0.358179    1.233572    2.120118 H         1 <1>         0.035115 
     13 H          -2.538241    0.712354    0.099721 H         1 <1>         0.027131 
     14 H          -2.434860   -1.030459   -0.251277 H         1 <1>         0.027131 
     15 H           1.452494    2.107092   -0.000498 H         1 <1>         0.057458 
     16 H           1.912188   -1.451729    2.739412 H         1 <1>         0.023525 
     17 H           0.436747   -2.466845    2.717949 H         1 <1>         0.023525 
     18 H           0.403493   -0.847915    3.473396 H         1 <1>         0.023525 
     19 H           1.790591   -2.309664    0.334679 H         1 <1>         0.023525 
     20 H           0.156718   -2.312740   -0.361963 H         1 <1>         0.023525 
     21 H           1.342125   -1.021665   -0.781909 H         1 <1>         0.023525 
     22 H          -1.860327    0.666326   -2.135650 H         1 <1>         0.030999 
     23 H          -0.721600   -0.662701   -1.933278 H         1 <1>         0.030999 
     24 H           1.315626    2.622806   -2.337605 H         1 <1>         0.027436 
     25 H           0.694589    1.260150   -3.303645 H         1 <1>         0.027436 
     26 H          -0.389410    2.611798   -2.856183 H         1 <1>         0.027436 
@<TRIPOS>BOND
     1    1    2 1    
     2    1    3 1    
     3    1    4 1    
     4    1   11 1    
     5    2    3 1    
     6    2    5 1    
     7    2   12 1    
     8    3    6 1    
     9    3    7 1    
    10    4    8 1    
    11    4   13 1    
    12    4   14 1    
    13    5    9 2    
    14    5   15 1    
    15    6   16 1    
    16    6   17 1    
    17    6   18 1    
    18    7   19 1    
    19    7   20 1    
    20    7   21 1    
    21    8    9 1    
    22    8   22 1    
    23    8   23 1    
    24    9   10 1    
    25   10   24 1    
    26   10   25 1    
    27   10   26 1    
@<TRIPOS>SUBSTRUCTURE
     1 ****        1 TEMP              0 ****  ****    0 ROOT 
@<TRIPOS>NORMAL
@<TRIPOS>FF_PBC
FORCE_FIELD_SETUP_FEATURE Force Field Setup information
v1.0  0 0.000000 0.000000 0.000000 0.000000 0.000000 0.000000 NONE 0 0 0 0 1 0 0 0 0 0 0 0 0
