@<TRIPOS>MOLECULE
MOL004652
   99   103     1     1     0
SMALL
GASTEIGER


@<TRIPOS>ATOM
      1 C          -4.581905   -0.336204    0.686114 C.3       1 <1>        -0.025966 
      2 C          -4.498697   -1.861333    0.445089 C.3       1 <1>         0.062091 
      3 C          -3.599177   -2.154824   -0.793448 C.3       1 <1>        -0.022865 
      4 C          -2.696975   -0.951855   -1.212008 C.3       1 <1>        -0.029317 
      5 C          -2.049651   -0.186305   -0.014482 C.3       1 <1>        -0.022289 
      6 C          -3.174529    0.243070    1.001192 C.3       1 <1>        -0.044474 
      7 C          -1.626023   -1.423077   -2.232327 C.3       1 <1>        -0.031055 
      8 C          -0.740111   -0.279739   -2.644708 C.2       1 <1>        -0.083920 
      9 C          -0.622092    0.853015   -1.938203 C.2       1 <1>        -0.066224 
     10 C          -1.329537    1.081737   -0.609275 C.3       1 <1>        -0.013941 
     11 C           0.184122    2.028022   -2.450975 C.3       1 <1>        -0.013943 
     12 C           1.153916    2.609624   -1.394312 C.3       1 <1>        -0.022188 
     13 C           0.308752    3.048500   -0.163586 C.3       1 <1>        -0.046253 
     14 C          -0.439068    1.827853    0.438926 C.3       1 <1>        -0.045475 
     15 C           1.759926    3.792294   -2.209967 C.3       1 <1>        -0.029061 
     16 C           1.993761    3.192064   -3.630562 C.3       1 <1>        -0.048617 
     17 C           1.069415    1.938727   -3.720069 C.3       1 <1>        -0.045710 
     18 C           2.945890    4.586257   -1.573851 C.3       1 <1>        -0.022385 
     19 C           4.216678    3.799994   -1.319920 C.2       1 <1>        -0.084547 
     20 C           4.772456    3.671542   -0.105604 C.2       1 <1>        -0.084339 
     21 C           6.058718    2.923338    0.209619 C.3       1 <1>        -0.020812 
     22 C           7.234280    3.959176    0.231584 C.3       1 <1>        -0.040461 
     23 C           8.383658    3.605259    1.220203 C.3       1 <1>        -0.062133 
     24 C           7.794695    4.268431   -1.183402 C.3       1 <1>        -0.062133 
     25 C           6.236515    1.644525   -0.671688 C.3       1 <1>        -0.049381 
     26 C           7.351555    0.666556   -0.212977 C.3       1 <1>        -0.064738 
     27 C           3.337415    5.796783   -2.466235 C.3       1 <1>        -0.058684 
     28 H           0.949665    4.536496   -2.319081 H         1 <1>         0.031176 
     29 H          -0.592751    2.776651   -2.687140 H         1 <1>         0.035106 
     30 H          -2.115721    1.796531   -0.904326 H         1 <1>         0.035106 
     31 C           2.238325    1.558814   -0.994351 C.3       1 <1>        -0.058747 
     32 C          -1.014867   -1.116624    0.701232 C.3       1 <1>        -0.058754 
     33 O          -3.995872   -2.431289    1.675866 O.3       1 <1>        -0.345420 
     34 H          -3.329667   -0.225276   -1.751925 H         1 <1>         0.030996 
     35 C          -4.247741   -3.842500    1.837734 C.3       1 <1>         0.188205 
     36 O          -5.671636   -4.061226    1.799255 O.3       1 <1>        -0.340523 
     37 C          -6.047518   -5.442432    1.980070 C.3       1 <1>         0.113005 
     38 C          -5.585534   -5.932968    3.376351 C.3       1 <1>         0.111896 
     39 C          -4.056905   -5.726857    3.522748 C.3       1 <1>         0.114061 
     40 C          -3.694445   -4.250448    3.225889 C.3       1 <1>         0.134121 
     41 C          -7.586591   -5.559776    1.832004 C.3       1 <1>         0.073015 
     42 O          -3.672994   -6.085362    4.863976 O.3       1 <1>        -0.386401 
     43 O          -7.963450   -5.239594    0.478275 O.3       1 <1>        -0.392366 
     44 O          -5.919935   -7.325169    3.528706 O.3       1 <1>        -0.386488 
     45 O          -2.261720   -4.106063    3.283311 O.3       1 <1>        -0.384104 
     46 H          -5.253139   -0.146141    1.541663 H         1 <1>         0.029029 
     47 H          -5.028869    0.161748   -0.189832 H         1 <1>         0.029029 
     48 H          -5.531119   -2.209410    0.259251 H         1 <1>         0.059686 
     49 H          -4.240492   -2.400814   -1.657175 H         1 <1>         0.029306 
     50 H          -2.979778   -3.041745   -0.608795 H         1 <1>         0.029306 
     51 H          -2.914216   -0.071440    2.024518 H         1 <1>         0.027158 
     52 H          -3.305041    1.335627    1.044648 H         1 <1>         0.027158 
     53 H          -2.145461   -1.802857   -3.127907 H         1 <1>         0.031026 
     54 H          -1.002467   -2.242405   -1.844902 H         1 <1>         0.031026 
     55 H          -0.203681   -0.415252   -3.582620 H         1 <1>         0.057189 
     56 H           0.963182    3.501858    0.598465 H         1 <1>         0.027096 
     57 H          -0.436942    3.806318   -0.453646 H         1 <1>         0.027096 
     58 H          -1.055336    2.176603    1.283075 H         1 <1>         0.027132 
     59 H           0.326720    1.165550    0.860452 H         1 <1>         0.027132 
     60 H           1.736929    3.930809   -4.408795 H         1 <1>         0.026846 
     61 H           3.039527    2.894029   -3.795135 H         1 <1>         0.026846 
     62 H           1.677360    1.020457   -3.692070 H         1 <1>         0.027124 
     63 H           0.468521    1.920606   -4.644719 H         1 <1>         0.027124 
     64 H           2.570944    5.003432   -0.623842 H         1 <1>         0.034310 
     65 H           4.692084    3.346394   -2.184411 H         1 <1>         0.057182 
     66 H           4.278541    4.153952    0.740125 H         1 <1>         0.057190 
     67 H           5.919844    2.552959    1.239940 H         1 <1>         0.034534 
     68 H           6.821259    4.907262    0.623817 H         1 <1>         0.030110 
     69 H           9.090695    4.447147    1.290424 H         1 <1>         0.023251 
     70 H           7.985022    3.415548    2.228985 H         1 <1>         0.023251 
     71 H           8.953700    2.725363    0.901923 H         1 <1>         0.023251 
     72 H           8.504512    5.109249   -1.137197 H         1 <1>         0.023251 
     73 H           6.980875    4.545437   -1.870423 H         1 <1>         0.023251 
     74 H           8.327391    3.398184   -1.593370 H         1 <1>         0.023251 
     75 H           5.285454    1.088648   -0.617483 H         1 <1>         0.026833 
     76 H           6.416946    1.888412   -1.729031 H         1 <1>         0.026833 
     77 H           7.210132   -0.313686   -0.696309 H         1 <1>         0.022995 
     78 H           8.345036    1.030389   -0.509244 H         1 <1>         0.022995 
     79 H           7.325195    0.519414    0.877650 H         1 <1>         0.022995 
     80 H           4.127901    6.387719   -1.976426 H         1 <1>         0.023544 
     81 H           2.472725    6.456600   -2.638466 H         1 <1>         0.023544 
     82 H           3.715760    5.455900   -3.441937 H         1 <1>         0.023544 
     83 H           3.009979    1.436407   -1.765106 H         1 <1>         0.023534 
     84 H           2.737394    1.864368   -0.063840 H         1 <1>         0.023534 
     85 H           1.799600    0.564068   -0.832373 H         1 <1>         0.023534 
     86 H          -0.698821   -0.715058    1.674999 H         1 <1>         0.023534 
     87 H          -0.108017   -1.247326    0.093234 H         1 <1>         0.023534 
     88 H          -1.440080   -2.107767    0.901500 H         1 <1>         0.023534 
     89 H          -3.732224   -4.433582    1.065121 H         1 <1>         0.093749 
     90 H          -5.596395   -6.076206    1.197942 H         1 <1>         0.064668 
     91 H          -6.098057   -5.332325    4.147980 H         1 <1>         0.064673 
     92 H          -3.541155   -6.382585    2.799695 H         1 <1>         0.064758 
     93 H          -4.171762   -3.614309    3.991260 H         1 <1>         0.067095 
     94 H          -8.066158   -4.862722    2.539584 H         1 <1>         0.058370 
     95 H          -7.907401   -6.588116    2.071161 H         1 <1>         0.058370 
     96 H          -2.739348   -5.958709    5.010176 H         1 <1>         0.210005 
     97 H          -8.903934   -5.280708    0.330861 H         1 <1>         0.209508 
     98 H          -5.631575   -7.667646    4.370604 H         1 <1>         0.210004 
     99 H          -1.994077   -3.206285    3.118578 H         1 <1>         0.210110 
@<TRIPOS>BOND
     1    1    2 1    
     2    1    6 1    
     3    1   46 1    
     4    1   47 1    
     5    2    3 1    
     6    2   33 1    
     7    2   48 1    
     8    3    4 1    
     9    3   49 1    
    10    3   50 1    
    11    4    5 1    
    12    4    7 1    
    13    4   34 1    
    14    5    6 1    
    15    5   10 1    
    16    5   32 1    
    17    6   51 1    
    18    6   52 1    
    19    7    8 1    
    20    7   53 1    
    21    7   54 1    
    22    8    9 2    
    23    8   55 1    
    24    9   10 1    
    25    9   11 1    
    26   10   14 1    
    27   10   30 1    
    28   11   12 1    
    29   11   17 1    
    30   11   29 1    
    31   12   13 1    
    32   12   15 1    
    33   12   31 1    
    34   13   14 1    
    35   13   56 1    
    36   13   57 1    
    37   14   58 1    
    38   14   59 1    
    39   15   16 1    
    40   15   18 1    
    41   15   28 1    
    42   16   17 1    
    43   16   60 1    
    44   16   61 1    
    45   17   62 1    
    46   17   63 1    
    47   18   19 1    
    48   18   27 1    
    49   18   64 1    
    50   19   20 2    
    51   19   65 1    
    52   20   21 1    
    53   20   66 1    
    54   21   22 1    
    55   21   25 1    
    56   21   67 1    
    57   22   23 1    
    58   22   24 1    
    59   22   68 1    
    60   23   69 1    
    61   23   70 1    
    62   23   71 1    
    63   24   72 1    
    64   24   73 1    
    65   24   74 1    
    66   25   26 1    
    67   25   75 1    
    68   25   76 1    
    69   26   77 1    
    70   26   78 1    
    71   26   79 1    
    72   27   80 1    
    73   27   81 1    
    74   27   82 1    
    75   31   83 1    
    76   31   84 1    
    77   31   85 1    
    78   32   86 1    
    79   32   87 1    
    80   32   88 1    
    81   33   35 1    
    82   35   36 1    
    83   35   40 1    
    84   35   89 1    
    85   36   37 1    
    86   37   38 1    
    87   37   41 1    
    88   37   90 1    
    89   38   39 1    
    90   38   44 1    
    91   38   91 1    
    92   39   40 1    
    93   39   42 1    
    94   39   92 1    
    95   40   45 1    
    96   40   93 1    
    97   41   43 1    
    98   41   94 1    
    99   41   95 1    
   100   42   96 1    
   101   43   97 1    
   102   44   98 1    
   103   45   99 1    
@<TRIPOS>SUBSTRUCTURE
     1 ****        1 TEMP              0 ****  ****    0 ROOT 
@<TRIPOS>NORMAL
@<TRIPOS>FF_PBC
FORCE_FIELD_SETUP_FEATURE Force Field Setup information
v1.0  0 0.000000 0.000000 0.000000 0.000000 0.000000 0.000000 NONE 0 0 0 0 1 0 0 0 0 0 0 0 0
