@<TRIPOS>MOLECULE
MOL001934
   28    29     1     1     0
SMALL
GASTEIGER


@<TRIPOS>ATOM
      1 O          -1.764773   -1.652187   -0.193583 O.3       1 <1>        -0.311250 
      2 O           2.702877   -0.880297    1.507066 O.3       1 <1>        -0.381257 
      3 O           1.870558    1.644492    1.130177 O.2       1 <1>        -0.294351 
      4 O          -3.492665   -0.883373    1.016566 O.2       1 <1>        -0.264655 
      5 C          -0.774336    0.381712   -0.752016 C.3       1 <1>         0.004292 
      6 C          -0.490572   -1.133619   -0.604344 C.3       1 <1>         0.074982 
      7 C          -1.717165    0.639150    0.447173 C.3       1 <1>         0.047518 
      8 C           0.547348   -1.460883    0.507194 C.3       1 <1>         0.009916 
      9 C           0.504162    1.259103   -0.772728 C.3       1 <1>         0.014615 
     10 C           1.849087   -0.624975    0.374225 C.3       1 <1>         0.123137 
     11 C           1.454226    0.836429    0.315541 C.2       1 <1>         0.164760 
     12 C          -2.417840   -0.693602    0.472883 C.2       1 <1>         0.265634 
     13 C          -2.684532    1.834747    0.246401 C.3       1 <1>        -0.053016 
     14 C           2.685330   -1.041632   -0.865123 C.3       1 <1>        -0.029028 
     15 H          -1.342495    0.539370   -1.686224 H         1 <1>         0.033738 
     16 H          -0.186029   -1.594535   -1.558326 H         1 <1>         0.060606 
     17 H          -1.158103    0.773148    1.386948 H         1 <1>         0.040282 
     18 H           0.106455   -1.259820    1.495243 H         1 <1>         0.032237 
     19 H           0.788575   -2.535316    0.478014 H         1 <1>         0.032237 
     20 H           0.228817    2.317321   -0.644768 H         1 <1>         0.034625 
     21 H           1.012278    1.166583   -1.743967 H         1 <1>         0.034625 
     22 H          -2.121032    2.775288    0.153968 H         1 <1>         0.023728 
     23 H          -3.293940    1.694668   -0.659618 H         1 <1>         0.023728 
     24 H          -3.361319    1.915294    1.111284 H         1 <1>         0.023728 
     25 H           3.582886   -0.406945   -0.924399 H         1 <1>         0.026147 
     26 H           3.008943   -2.088399   -0.758638 H         1 <1>         0.026147 
     27 H           2.131399   -0.948346   -1.808817 H         1 <1>         0.026147 
     28 H           2.332256   -0.574074    2.328771 H         1 <1>         0.210726 
@<TRIPOS>BOND
     1    6    1 1    
     2   12    1 1    
     3   10    2 1    
     4    2   28 1    
     5   11    3 2    
     6   12    4 2    
     7    5    6 1    
     8    5    7 1    
     9    9    5 1    
    10    5   15 1    
    11    6    8 1    
    12    6   16 1    
    13    7   12 1    
    14    7   13 1    
    15    7   17 1    
    16    8   10 1    
    17    8   18 1    
    18    8   19 1    
    19    9   11 1    
    20    9   20 1    
    21    9   21 1    
    22   10   11 1    
    23   10   14 1    
    24   13   22 1    
    25   13   23 1    
    26   13   24 1    
    27   14   25 1    
    28   14   26 1    
    29   14   27 1    
@<TRIPOS>SUBSTRUCTURE
     1 ****        1 TEMP              0 ****  ****    0 ROOT 
@<TRIPOS>NORMAL
@<TRIPOS>FF_PBC
FORCE_FIELD_SETUP_FEATURE Force Field Setup information
v1.0  0 0.000000 0.000000 0.000000 0.000000 0.000000 0.000000 NONE 0 0 0 0 1 0 0 0 0 0 0 0 0
