@<TRIPOS>MOLECULE
MOL001283
   42    41     1     1     0
SMALL
GASTEIGER


@<TRIPOS>ATOM
      1 C          -3.504491   -0.280807    1.281046 C.3       1 <1>         0.081390 
      2 C          -2.978210   -0.240695   -0.178219 C.3       1 <1>        -0.032444 
      3 C          -4.947868   -0.755092    1.233876 C.2       1 <1>        -0.060223 
      4 C          -5.429512   -1.907958    1.718781 C.2       1 <1>        -0.099966 
      5 C          -2.589038   -1.138505    2.211138 C.3       1 <1>        -0.017216 
      6 C          -1.143451   -0.588863    2.394804 C.3       1 <1>        -0.031629 
      7 C          -0.227087   -0.860112    1.222215 C.2       1 <1>        -0.084914 
      8 C           0.833368   -0.105985    0.887282 C.2       1 <1>        -0.076240 
      9 C           1.257373    1.105204    1.690235 C.3       1 <1>        -0.043778 
     10 C           1.681420   -0.428738   -0.329540 C.3       1 <1>        -0.028563 
     11 C           1.603115    0.705982   -1.384524 C.3       1 <1>        -0.030848 
     12 C           2.468675    0.360875   -2.576382 C.2       1 <1>        -0.084989 
     13 C           3.751835    0.722959   -2.746834 C.2       1 <1>        -0.079608 
     14 C           4.547711    1.517086   -1.732657 C.3       1 <1>        -0.044049 
     15 C           4.506203    0.350525   -4.006103 C.3       1 <1>        -0.044049 
     16 O          -3.523828    1.080401    1.745516 O.3       1 <1>        -0.384818 
     17 H          -3.680577    0.311916   -0.821270 H         1 <1>         0.026037 
     18 H          -2.867466   -1.260713   -0.575815 H         1 <1>         0.026037 
     19 H          -2.011477    0.278527   -0.231828 H         1 <1>         0.026037 
     20 H          -5.656944   -0.079127    0.752219 H         1 <1>         0.059440 
     21 H          -4.826661   -2.663455    2.218450 H         1 <1>         0.053262 
     22 H          -6.492387   -2.132995    1.622711 H         1 <1>         0.053262 
     23 H          -3.064429   -1.153739    3.206248 H         1 <1>         0.029887 
     24 H          -2.530439   -2.176046    1.847347 H         1 <1>         0.029887 
     25 H          -0.682893   -1.098732    3.256811 H         1 <1>         0.030839 
     26 H          -1.209250    0.484335    2.628146 H         1 <1>         0.030839 
     27 H          -0.457355   -1.738665    0.619752 H         1 <1>         0.057155 
     28 H           0.670506    1.978037    1.367774 H         1 <1>         0.027436 
     29 H           2.325333    1.327989    1.545655 H         1 <1>         0.027436 
     30 H           1.108373    0.951259    2.768902 H         1 <1>         0.027436 
     31 H           2.724222   -0.574528   -0.007709 H         1 <1>         0.031285 
     32 H           1.363083   -1.366321   -0.813920 H         1 <1>         0.031285 
     33 H           1.892248    1.676752   -0.956864 H         1 <1>         0.031044 
     34 H           0.557084    0.810644   -1.715598 H         1 <1>         0.031044 
     35 H           1.982507   -0.237271   -3.348200 H         1 <1>         0.057155 
     36 H           4.182546    1.403246   -0.703160 H         1 <1>         0.027427 
     37 H           4.512768    2.581795   -2.008174 H         1 <1>         0.027427 
     38 H           5.599261    1.192353   -1.736052 H         1 <1>         0.027427 
     39 H           3.871496   -0.133389   -4.764362 H         1 <1>         0.027427 
     40 H           4.936948    1.258670   -4.454470 H         1 <1>         0.027427 
     41 H           5.324642   -0.340790   -3.754058 H         1 <1>         0.027427 
     42 H          -3.878352    1.164972    2.624836 H         1 <1>         0.210579 
@<TRIPOS>BOND
     1    1    2 1    
     2    1    3 1    
     3    1    5 1    
     4    1   16 1    
     5    2   17 1    
     6    2   18 1    
     7    2   19 1    
     8    3    4 2    
     9    3   20 1    
    10    4   21 1    
    11    4   22 1    
    12    5    6 1    
    13    5   23 1    
    14    5   24 1    
    15    6    7 1    
    16    6   25 1    
    17    6   26 1    
    18    7    8 2    
    19    7   27 1    
    20    8    9 1    
    21    8   10 1    
    22    9   28 1    
    23    9   29 1    
    24    9   30 1    
    25   10   11 1    
    26   10   31 1    
    27   10   32 1    
    28   11   12 1    
    29   11   33 1    
    30   11   34 1    
    31   12   13 2    
    32   12   35 1    
    33   13   14 1    
    34   13   15 1    
    35   14   36 1    
    36   14   37 1    
    37   14   38 1    
    38   15   39 1    
    39   15   40 1    
    40   15   41 1    
    41   16   42 1    
@<TRIPOS>SUBSTRUCTURE
     1 ****        1 TEMP              0 ****  ****    0 ROOT 
@<TRIPOS>NORMAL
@<TRIPOS>FF_PBC
FORCE_FIELD_SETUP_FEATURE Force Field Setup information
v1.0  0 0.000000 0.000000 0.000000 0.000000 0.000000 0.000000 NONE 0 0 0 0 1 0 0 0 0 0 0 0 0
