@<TRIPOS>MOLECULE
MOL002669
   98   102     1     1     0
SMALL
GASTEIGER


@<TRIPOS>ATOM
      1 C           7.094124   -1.393399   -1.466044 C.3       1 <1>        -0.024907 
      2 C           6.121589   -2.359440   -0.751670 C.3       1 <1>         0.072077 
      3 C           6.920012   -3.202623    0.284458 C.3       1 <1>        -0.004222 
      4 C           8.289491   -2.626634    0.606757 C.2       1 <1>        -0.064816 
      5 C           8.374351   -1.115055    0.778466 C.3       1 <1>        -0.007819 
      6 C           7.674604   -0.393543   -0.432013 C.3       1 <1>        -0.041289 
      7 C           9.350216   -3.442022    0.727255 C.2       1 <1>        -0.083873 
      8 C          10.754190   -3.011629    1.078330 C.3       1 <1>        -0.031102 
      9 C          10.781060   -1.588752    1.703024 C.3       1 <1>        -0.030653 
     10 C           9.881867   -0.688650    0.816736 C.3       1 <1>        -0.028547 
     11 C          12.176129   -0.921413    2.045761 C.3       1 <1>        -0.031972 
     12 C          12.697654    0.189446    1.067955 C.3       1 <1>        -0.025885 
     13 C          11.540451    1.187954    0.708532 C.3       1 <1>        -0.046813 
     14 C          10.136256    0.781839    1.225931 C.3       1 <1>        -0.048644 
     15 C          13.361150   -1.919564    2.098322 C.3       1 <1>        -0.049160 
     16 C          13.980686   -1.851023    0.674295 C.3       1 <1>        -0.049187 
     17 O           5.108653   -1.535365   -0.136464 O.3       1 <1>        -0.308236 
     18 C           7.626555   -0.765059    2.103308 C.3       1 <1>        -0.055578 
     19 C          13.851245    1.013738    1.738404 C.3       1 <1>        -0.059038 
     20 C          13.287385   -0.680329   -0.098602 C.3       1 <1>        -0.032778 
     21 C          14.217084   -0.052515   -1.209849 C.3       1 <1>        -0.040533 
     22 C          14.828437   -1.196025   -2.086024 C.3       1 <1>        -0.062146 
     23 C          13.520077    0.958148   -2.194342 C.3       1 <1>        -0.049941 
     24 C          13.693773    2.463174   -1.834624 C.3       1 <1>        -0.049975 
     25 C          13.111419    3.502911   -2.851527 C.3       1 <1>        -0.041535 
     26 C          11.555833    3.427389   -3.044400 C.3       1 <1>        -0.044135 
     27 C          10.930427    4.845038   -3.207225 C.3       1 <1>        -0.062422 
     28 C          11.091875    2.551808   -4.246491 C.3       1 <1>        -0.062422 
     29 C          13.900193    3.550022   -4.192869 C.3       1 <1>        -0.062180 
     30 C           4.053436   -2.192026    0.365577 C.2       1 <1>         0.286864 
     31 C           2.978355   -1.411931    1.001046 C.2       1 <1>         0.010501 
     32 O           3.955839   -3.407597    0.298830 O.2       1 <1>        -0.259869 
     33 C           1.808758   -1.915471    1.413247 C.2       1 <1>        -0.048856 
     34 C           0.745946   -1.034836    2.034742 C.ar      1 <1>        -0.022251 
     35 C          -0.617122   -1.307553    1.768791 C.ar      1 <1>        -0.022000 
     36 C          -1.678822   -0.432257    2.317513 C.ar      1 <1>         0.105959 
     37 C          -1.333450    0.676104    3.138477 C.ar      1 <1>         0.102471 
     38 C           0.097389    0.938291    3.440113 C.ar      1 <1>        -0.028841 
     39 C           1.099727    0.110913    2.909340 C.ar      1 <1>        -0.051998 
     40 O          -2.338229    1.504846    3.648475 O.3       1 <1>        -0.357268 
     41 O          -3.014687   -0.700983    2.011327 O.3       1 <1>        -0.345331 
     42 C          -3.501824    0.059772    0.892994 C.3       1 <1>         0.043136 
     43 H           6.552726   -0.842210   -2.253002 H         1 <1>         0.029064 
     44 H           7.907306   -1.963025   -1.946458 H         1 <1>         0.029064 
     45 H           5.654240   -2.998393   -1.524607 H         1 <1>         0.060518 
     46 H           7.020933   -4.219493   -0.126334 H         1 <1>         0.033535 
     47 H           6.358753   -3.298622    1.224896 H         1 <1>         0.033535 
     48 H           6.861369    0.261277   -0.080187 H         1 <1>         0.027446 
     49 H           8.355962    0.261937   -0.997788 H         1 <1>         0.027446 
     50 H           9.221127   -4.513345    0.565797 H         1 <1>         0.057190 
     51 H          11.362133   -3.075108    0.165994 H         1 <1>         0.031025 
     52 H          11.118589   -3.760877    1.797721 H         1 <1>         0.031025 
     53 H          10.269881   -1.722004    2.670135 H         1 <1>         0.030949 
     54 H          10.227629   -0.827525   -0.218815 H         1 <1>         0.031195 
     55 H          12.066241   -0.453432    3.040570 H         1 <1>         0.030896 
     56 H          11.730904    2.206206    1.088770 H         1 <1>         0.027078 
     57 H          11.441057    1.260965   -0.377748 H         1 <1>         0.027078 
     58 H          10.085145    0.891632    2.321131 H         1 <1>         0.026846 
     59 H           9.385422    1.461704    0.791974 H         1 <1>         0.026846 
     60 H          13.101945   -2.939016    2.410791 H         1 <1>         0.026828 
     61 H          14.093877   -1.578734    2.849368 H         1 <1>         0.026828 
     62 H          15.063940   -1.677020    0.779636 H         1 <1>         0.026828 
     63 H          13.844739   -2.811126    0.147952 H         1 <1>         0.026828 
     64 H           6.557409   -1.007490    2.019997 H         1 <1>         0.023820 
     65 H           8.019295   -1.327274    2.960927 H         1 <1>         0.023820 
     66 H           7.693924    0.308058    2.331270 H         1 <1>         0.023820 
     67 H          14.170727    1.843842    1.096133 H         1 <1>         0.023524 
     68 H          13.505717    1.451361    2.687384 H         1 <1>         0.023524 
     69 H          14.755868    0.431596    1.951777 H         1 <1>         0.023524 
     70 H          12.445012   -1.116156   -0.650398 H         1 <1>         0.030870 
     71 H          15.074312    0.438048   -0.722781 H         1 <1>         0.030096 
     72 H          15.511524   -0.789282   -2.847885 H         1 <1>         0.023250 
     73 H          15.425738   -1.917288   -1.513231 H         1 <1>         0.023250 
     74 H          14.024389   -1.745214   -2.599223 H         1 <1>         0.023250 
     75 H          13.965453    0.876239   -3.195033 H         1 <1>         0.026802 
     76 H          12.468006    0.673836   -2.310184 H         1 <1>         0.026802 
     77 H          13.237048    2.670869   -0.860823 H         1 <1>         0.026802 
     78 H          14.773301    2.661093   -1.726259 H         1 <1>         0.026802 
     79 H          13.323354    4.475706   -2.371300 H         1 <1>         0.030062 
     80 H          11.115309    3.002027   -2.127439 H         1 <1>         0.029806 
     81 H           9.837624    4.776755   -3.330499 H         1 <1>         0.023242 
     82 H          11.127416    5.466897   -2.319410 H         1 <1>         0.023242 
     83 H          11.346479    5.354625   -4.089607 H         1 <1>         0.023242 
     84 H           9.997115    2.428494   -4.220625 H         1 <1>         0.023242 
     85 H          11.539471    1.550021   -4.237614 H         1 <1>         0.023242 
     86 H          11.349789    3.034076   -5.201761 H         1 <1>         0.023242 
     87 H          13.556140    4.392873   -4.811474 H         1 <1>         0.023250 
     88 H          14.975084    3.691805   -3.999506 H         1 <1>         0.023250 
     89 H          13.783116    2.627440   -4.777526 H         1 <1>         0.023250 
     90 H           3.189308   -0.348821    1.105318 H         1 <1>         0.067735 
     91 H           1.595504   -2.976961    1.285841 H         1 <1>         0.062526 
     92 H          -0.897736   -2.151674    1.149632 H         1 <1>         0.065001 
     93 H           0.375825    1.772442    4.075460 H         1 <1>         0.064421 
     94 H           2.137730    0.313663    3.151295 H         1 <1>         0.062425 
     95 H          -2.014720    2.183390    4.229194 H         1 <1>         0.217422 
     96 H          -4.551809   -0.215773    0.713899 H         1 <1>         0.052871 
     97 H          -2.921424   -0.166850   -0.015615 H         1 <1>         0.052871 
     98 H          -3.450309    1.141238    1.096804 H         1 <1>         0.052871 
@<TRIPOS>BOND
     1    1    2 1    
     2    1    6 1    
     3    1   43 1    
     4    1   44 1    
     5    2    3 1    
     6    2   17 1    
     7    2   45 1    
     8    3    4 1    
     9    3   46 1    
    10    3   47 1    
    11    4    5 1    
    12    4    7 2    
    13    5    6 1    
    14    5   10 1    
    15    5   18 1    
    16    6   48 1    
    17    6   49 1    
    18    7    8 1    
    19    7   50 1    
    20    8    9 1    
    21    8   51 1    
    22    8   52 1    
    23    9   10 1    
    24    9   11 1    
    25    9   53 1    
    26   10   14 1    
    27   10   54 1    
    28   11   12 1    
    29   11   15 1    
    30   11   55 1    
    31   12   13 1    
    32   12   19 1    
    33   12   20 1    
    34   13   14 1    
    35   13   56 1    
    36   13   57 1    
    37   14   58 1    
    38   14   59 1    
    39   15   16 1    
    40   15   60 1    
    41   15   61 1    
    42   16   20 1    
    43   16   62 1    
    44   16   63 1    
    45   17   30 1    
    46   18   64 1    
    47   18   65 1    
    48   18   66 1    
    49   19   67 1    
    50   19   68 1    
    51   19   69 1    
    52   20   21 1    
    53   20   70 1    
    54   21   22 1    
    55   21   23 1    
    56   21   71 1    
    57   22   72 1    
    58   22   73 1    
    59   22   74 1    
    60   23   24 1    
    61   23   75 1    
    62   23   76 1    
    63   24   25 1    
    64   24   77 1    
    65   24   78 1    
    66   25   26 1    
    67   25   29 1    
    68   25   79 1    
    69   26   27 1    
    70   26   28 1    
    71   26   80 1    
    72   27   81 1    
    73   27   82 1    
    74   27   83 1    
    75   28   84 1    
    76   28   85 1    
    77   28   86 1    
    78   29   87 1    
    79   29   88 1    
    80   29   89 1    
    81   30   31 1    
    82   30   32 2    
    83   31   33 2    
    84   31   90 1    
    85   33   34 1    
    86   33   91 1    
    87   34   35 2    
    88   34   39 1    
    89   35   36 1    
    90   35   92 1    
    91   36   37 2    
    92   36   41 1    
    93   37   38 1    
    94   37   40 1    
    95   38   39 2    
    96   38   93 1    
    97   39   94 1    
    98   40   95 1    
    99   41   42 1    
   100   42   96 1    
   101   42   97 1    
   102   42   98 1    
@<TRIPOS>SUBSTRUCTURE
     1 ****        1 TEMP              0 ****  ****    0 ROOT 
@<TRIPOS>NORMAL
@<TRIPOS>FF_PBC
FORCE_FIELD_SETUP_FEATURE Force Field Setup information
v1.0  0 0.000000 0.000000 0.000000 0.000000 0.000000 0.000000 NONE 0 0 0 0 1 0 0 0 0 0 0 0 0
