@<TRIPOS>MOLECULE
MOL002830
   16    16     1     1     0
SMALL
GASTEIGER


@<TRIPOS>ATOM
      1 C           0.655474    0.752817   -0.199620 C.ar      1 <1>        -0.050289 
      2 C           1.208829   -0.577624    0.155763 C.ar      1 <1>        -0.056407 
      3 C          -0.740372    0.930092   -0.248945 C.ar      1 <1>        -0.056407 
      4 C           1.581456    1.932319   -0.512575 C.3       1 <1>        -0.039707 
      5 C           0.346116   -1.649109    0.439993 C.ar      1 <1>        -0.031691 
      6 C          -1.652611   -0.199423    0.050676 C.ar      1 <1>        -0.031691 
      7 C          -1.122962   -1.467128    0.389278 C.ar      1 <1>         0.072598 
      8 O          -1.954351   -2.552874    0.677336 O.3       1 <1>        -0.359832 
      9 H           2.282585   -0.727786    0.197404 H         1 <1>         0.062099 
     10 H          -1.155182    1.898858   -0.507722 H         1 <1>         0.062099 
     11 H           2.640660    1.645417   -0.434262 H         1 <1>         0.027753 
     12 H           1.385430    2.287106   -1.535559 H         1 <1>         0.027753 
     13 H           1.382490    2.749224    0.197267 H         1 <1>         0.027753 
     14 H           0.750248   -2.621581    0.699753 H         1 <1>         0.064328 
     15 H          -2.724697   -0.041134    0.006888 H         1 <1>         0.064328 
     16 H          -2.883214   -2.358774    0.624121 H         1 <1>         0.217313 
@<TRIPOS>BOND
     1    1    2 1    
     2    1    3 2    
     3    1    4 1    
     4    2    5 2    
     5    2    9 1    
     6    3    6 1    
     7    3   10 1    
     8    4   11 1    
     9    4   12 1    
    10    4   13 1    
    11    5    7 1    
    12    5   14 1    
    13    6    7 2    
    14    6   15 1    
    15    7    8 1    
    16    8   16 1    
@<TRIPOS>SUBSTRUCTURE
     1 ****        1 TEMP              0 ****  ****    0 ROOT 
@<TRIPOS>NORMAL
@<TRIPOS>FF_PBC
FORCE_FIELD_SETUP_FEATURE Force Field Setup information
v1.0  0 0.000000 0.000000 0.000000 0.000000 0.000000 0.000000 NONE 0 0 0 0 1 0 0 0 0 0 0 0 0
