@<TRIPOS>MOLECULE
MOL008057
   21    21     1     1     0
SMALL
GASTEIGER


@<TRIPOS>ATOM
      1 C          -1.431988    0.848641    0.541788 C.2       1 <1>         0.236798 
      2 C          -1.145386   -0.553591    0.696623 C.1       1 <1>        -0.009633 
      3 C          -0.896608   -1.722530    0.833205 C.1       1 <1>        -0.006430 
      4 C          -0.597750   -3.059155    0.996601 C.1       1 <1>        -0.014675 
      5 C          -0.325300   -4.222365    1.142290 C.1       1 <1>        -0.091780 
      6 C           0.014218   -5.628634    1.319211 C.3       1 <1>        -0.001628 
      7 O          -2.464906    1.302924    1.007010 O.2       1 <1>        -0.277480 
      8 C          -0.463744    1.761636   -0.180353 C.ar      1 <1>         0.030439 
      9 C          -0.696836    3.227539   -0.175791 C.ar      1 <1>        -0.050288 
     10 C           0.197488    4.093739   -0.831558 C.ar      1 <1>        -0.061067 
     11 C           1.378540    3.545350   -1.538463 C.ar      1 <1>        -0.061720 
     12 C           1.605347    2.158535   -1.554990 C.ar      1 <1>        -0.061067 
     13 C           0.667816    1.243623   -0.860734 C.ar      1 <1>        -0.050288 
     14 H           1.099406   -5.759679    1.197179 H         1 <1>         0.036181 
     15 H          -0.514799   -6.231001    0.566071 H         1 <1>         0.036181 
     16 H          -0.282093   -5.955494    2.326933 H         1 <1>         0.036181 
     17 H          -1.560518    3.636909    0.338311 H         1 <1>         0.062480 
     18 H           0.024723    5.165014   -0.821993 H         1 <1>         0.061778 
     19 H           2.065056    4.217537   -2.043171 H         1 <1>         0.061759 
     20 H           2.467400    1.754996   -2.076294 H         1 <1>         0.061778 
     21 H           0.860036    0.176106   -0.881772 H         1 <1>         0.062480 
@<TRIPOS>BOND
     1    1    2 1    
     2    1    7 2    
     3    1    8 1    
     4    2    3 3    
     5    3    4 1    
     6    4    5 3    
     7    5    6 1    
     8    6   14 1    
     9    6   15 1    
    10    6   16 1    
    11    8    9 1    
    12    8   13 2    
    13    9   10 2    
    14    9   17 1    
    15   10   11 1    
    16   10   18 1    
    17   11   12 2    
    18   11   19 1    
    19   12   13 1    
    20   12   20 1    
    21   13   21 1    
@<TRIPOS>SUBSTRUCTURE
     1 ****        1 TEMP              0 ****  ****    0 ROOT 
@<TRIPOS>NORMAL
@<TRIPOS>FF_PBC
FORCE_FIELD_SETUP_FEATURE Force Field Setup information
v1.0  0 0.000000 0.000000 0.000000 0.000000 0.000000 0.000000 NONE 0 0 0 0 1 0 0 0 0 0 0 0 0
