@<TRIPOS>MOLECULE
MOL000723
   27    26     1     1     0
SMALL
GASTEIGER


@<TRIPOS>ATOM
      1 C          -6.234963    0.242156   -0.000058 C.2       1 <1>         0.143100 
      2 C          -4.926064   -0.437121   -0.000018 C.2       1 <1>        -0.022455 
      3 C          -3.758041    0.218476   -0.000023 C.2       1 <1>        -0.059033 
      4 C          -2.449974   -0.470064    0.000026 C.2       1 <1>        -0.065593 
      5 C          -1.282217    0.185965    0.000086 C.2       1 <1>        -0.084006 
      6 C           0.040301   -0.544079    0.000154 C.3       1 <1>        -0.034468 
      7 C           1.243232    0.437578   -0.000102 C.3       1 <1>        -0.049615 
      8 C           2.599143   -0.320005    0.000068 C.3       1 <1>        -0.053028 
      9 C           3.796323    0.669577   -0.000155 C.3       1 <1>        -0.055902 
     10 C           5.152337   -0.082999    0.000063 C.3       1 <1>        -0.065276 
     11 O          -7.261613   -0.417249   -0.000049 O.2       1 <1>        -0.296320 
     12 H          -6.311085    1.329231   -0.000093 H         1 <1>         0.107515 
     13 H          -4.936680   -1.527389    0.000019 H         1 <1>         0.064938 
     14 H          -3.768003    1.309135   -0.000060 H         1 <1>         0.061844 
     15 H          -2.432573   -1.560848    0.000020 H         1 <1>         0.061449 
     16 H          -1.284180    1.276824    0.000096 H         1 <1>         0.057204 
     17 H           0.090032   -1.186086    0.894413 H         1 <1>         0.030741 
     18 H           0.089959   -1.186472   -0.893832 H         1 <1>         0.030741 
     19 H           1.184114    1.080150   -0.894296 H         1 <1>         0.026822 
     20 H           1.184146    1.080574    0.893790 H         1 <1>         0.026822 
     21 H           2.658278   -0.963089    0.893618 H         1 <1>         0.026529 
     22 H           2.658277   -0.963500   -0.893185 H         1 <1>         0.026529 
     23 H           3.742628    1.313722   -0.893760 H         1 <1>         0.026265 
     24 H           3.742596    1.314166    0.893130 H         1 <1>         0.026265 
     25 H           5.985503    0.637675   -0.000102 H         1 <1>         0.022978 
     26 H           5.239245   -0.718287    0.895305 H         1 <1>         0.022978 
     27 H           5.239280   -0.718742   -0.894853 H         1 <1>         0.022978 
@<TRIPOS>BOND
     1    1    2 1    
     2    1   11 2    
     3    1   12 1    
     4    2    3 2    
     5    2   13 1    
     6    3    4 1    
     7    3   14 1    
     8    4    5 2    
     9    4   15 1    
    10    5    6 1    
    11    5   16 1    
    12    6    7 1    
    13    6   17 1    
    14    6   18 1    
    15    7    8 1    
    16    7   19 1    
    17    7   20 1    
    18    8    9 1    
    19    8   21 1    
    20    8   22 1    
    21    9   10 1    
    22    9   23 1    
    23    9   24 1    
    24   10   25 1    
    25   10   26 1    
    26   10   27 1    
@<TRIPOS>SUBSTRUCTURE
     1 ****        1 TEMP              0 ****  ****    0 ROOT 
@<TRIPOS>NORMAL
@<TRIPOS>FF_PBC
FORCE_FIELD_SETUP_FEATURE Force Field Setup information
v1.0  0 0.000000 0.000000 0.000000 0.000000 0.000000 0.000000 NONE 0 0 0 0 1 0 0 0 0 0 0 0 0
