@<TRIPOS>MOLECULE
MOL013431
   76    80     1     1     0
SMALL
GASTEIGER


@<TRIPOS>ATOM
      1 C           0.649711    0.717386    0.176707 C.2       1 <1>         0.099705 
      2 C           1.874440    1.276236    0.276690 C.2       1 <1>         0.062067 
      3 C           1.984714    2.750291    0.372587 C.2       1 <1>         0.199237 
      4 C           0.743702    3.592459    0.227848 C.ar      1 <1>         0.082666 
      5 C          -0.515049    2.832949    0.167390 C.ar      1 <1>         0.104560 
      6 O          -0.477380    1.443670    0.202974 O.3       1 <1>        -0.306990 
      7 C          -1.749471    3.503191    0.068180 C.ar      1 <1>         0.044685 
      8 C          -1.768606    4.985113   -0.020710 C.ar      1 <1>         0.083256 
      9 C          -0.551340    5.707529    0.025626 C.ar      1 <1>        -0.000948 
     10 C           0.745051    4.996008    0.156035 C.ar      1 <1>         0.088343 
     11 O           3.060769    3.290239    0.566153 O.2       1 <1>        -0.286635 
     12 C           0.373310   -0.761145    0.041026 C.ar      1 <1>         0.008541 
     13 C          -0.467836   -1.402299    1.078832 C.ar      1 <1>        -0.019754 
     14 C          -0.764993   -2.762233    1.019361 C.ar      1 <1>         0.103078 
     15 C          -0.217043   -3.597127   -0.080109 C.ar      1 <1>         0.105440 
     16 C           0.580664   -2.993487   -1.076616 C.ar      1 <1>        -0.028520 
     17 C           0.851590   -1.537039   -1.031849 C.ar      1 <1>        -0.049502 
     18 O          -0.497420   -4.969228   -0.101024 O.3       1 <1>        -0.345349 
     19 C          -0.981786   -5.546378   -1.325946 C.3       1 <1>         0.043135 
     20 O          -1.581397   -3.329052    1.998796 O.3       1 <1>        -0.357255 
     21 O          -2.988727    5.652336   -0.148811 O.3       1 <1>        -0.359307 
     22 O           1.948282    5.701253    0.206227 O.3       1 <1>        -0.358955 
     23 C          -3.059502    2.704213    0.055373 C.3       1 <1>         0.117288 
     24 C          -3.182146    1.874975   -1.248046 C.3       1 <1>         0.113849 
     25 O          -3.241046    2.779323   -2.367277 O.3       1 <1>        -0.386221 
     26 C          -4.456594    0.996616   -1.185208 C.3       1 <1>         0.112059 
     27 O          -4.489435    0.140959   -2.343610 O.3       1 <1>        -0.386477 
     28 C          -4.457468    0.150645    0.112941 C.3       1 <1>         0.111744 
     29 O          -5.706196   -0.566156    0.159058 O.3       1 <1>        -0.386490 
     30 C          -4.286805    1.080804    1.343293 C.3       1 <1>         0.110816 
     31 O          -3.079974    1.861532    1.225300 O.3       1 <1>        -0.361023 
     32 C          -4.191495    0.255101    2.649993 C.3       1 <1>         0.072938 
     33 O          -5.354946   -0.587836    2.777829 O.3       1 <1>        -0.392367 
     34 C           3.174390    0.480297    0.305218 C.3       1 <1>         0.118492 
     35 C           3.319882   -0.481938    1.518926 C.3       1 <1>         0.113887 
     36 O           2.331688   -1.525794    1.507898 O.3       1 <1>        -0.386221 
     37 C           4.721268   -1.144336    1.475767 C.3       1 <1>         0.112059 
     38 O           4.808238   -2.094336    2.554698 O.3       1 <1>        -0.386477 
     39 C           4.910961   -1.856537    0.112510 C.3       1 <1>         0.111744 
     40 O           6.257089   -2.370510    0.081384 O.3       1 <1>        -0.386490 
     41 C           4.667757   -0.853548   -1.047805 C.3       1 <1>         0.110817 
     42 O           3.379832   -0.207110   -0.942706 O.3       1 <1>        -0.360983 
     43 C           4.718812   -1.586783   -2.411414 C.3       1 <1>         0.072938 
     44 O           5.955502   -2.320922   -2.522248 O.3       1 <1>        -0.392367 
     45 H          -0.565180    6.789346   -0.032879 H         1 <1>         0.066933 
     46 H          -0.860821   -0.804407    1.891009 H         1 <1>         0.065075 
     47 H           1.007818   -3.580778   -1.880466 H         1 <1>         0.064430 
     48 H           1.411272   -1.078313   -1.837316 H         1 <1>         0.062505 
     49 H          -1.287050   -6.580115   -1.106364 H         1 <1>         0.052871 
     50 H          -1.855844   -4.992827   -1.703203 H         1 <1>         0.052871 
     51 H          -0.204392   -5.576121   -2.102329 H         1 <1>         0.052871 
     52 H          -1.713352   -4.258525    1.841505 H         1 <1>         0.217422 
     53 H          -2.915825    6.514943   -0.542989 H         1 <1>         0.217329 
     54 H           1.849605    6.641578    0.113151 H         1 <1>         0.217342 
     55 H          -3.908006    3.405571    0.103284 H         1 <1>         0.067491 
     56 H          -2.313099    1.204936   -1.352776 H         1 <1>         0.064945 
     57 H          -3.348552    2.315174   -3.192830 H         1 <1>         0.210016 
     58 H          -5.339987    1.658768   -1.187487 H         1 <1>         0.064684 
     59 H          -5.247936   -0.436658   -2.331168 H         1 <1>         0.210004 
     60 H          -3.610898   -0.555741    0.071609 H         1 <1>         0.064671 
     61 H          -5.798781   -1.072305    0.963437 H         1 <1>         0.210004 
     62 H          -5.171990    1.733115    1.422497 H         1 <1>         0.064591 
     63 H          -3.277698   -0.361469    2.616699 H         1 <1>         0.058369 
     64 H          -4.114392    0.952246    3.503549 H         1 <1>         0.058369 
     65 H          -5.349821   -1.099298    3.583144 H         1 <1>         0.209508 
     66 H           4.012428    1.189729    0.394368 H         1 <1>         0.067529 
     67 H           3.218832    0.095996    2.454771 H         1 <1>         0.064946 
     68 H           2.451882   -2.144167    2.223797 H         1 <1>         0.210016 
     69 H           5.502693   -0.374121    1.600876 H         1 <1>         0.064684 
     70 H           5.640145   -2.560304    2.548666 H         1 <1>         0.210004 
     71 H           4.184774   -2.684388    0.039405 H         1 <1>         0.064671 
     72 H           6.467405   -2.772123   -0.759309 H         1 <1>         0.210004 
     73 H           5.477917   -0.104458   -1.038799 H         1 <1>         0.064591 
     74 H           3.856974   -2.273036   -2.473178 H         1 <1>         0.058369 
     75 H           4.632244   -0.841526   -3.221084 H         1 <1>         0.058369 
     76 H           6.044795   -2.773006   -3.357608 H         1 <1>         0.209508 
@<TRIPOS>BOND
     1    1    2 2    
     2    1    6 1    
     3    1   12 1    
     4    2    3 1    
     5    2   34 1    
     6    3    4 1    
     7    3   11 2    
     8    4    5 1    
     9    4   10 2    
    10    5    6 1    
    11    5    7 2    
    12    7    8 1    
    13    7   23 1    
    14    8    9 2    
    15    8   21 1    
    16    9   10 1    
    17    9   45 1    
    18   10   22 1    
    19   12   13 1    
    20   12   17 2    
    21   13   14 2    
    22   13   46 1    
    23   14   15 1    
    24   14   20 1    
    25   15   16 2    
    26   15   18 1    
    27   16   17 1    
    28   16   47 1    
    29   17   48 1    
    30   18   19 1    
    31   19   49 1    
    32   19   50 1    
    33   19   51 1    
    34   20   52 1    
    35   21   53 1    
    36   22   54 1    
    37   23   24 1    
    38   23   31 1    
    39   23   55 1    
    40   24   25 1    
    41   24   26 1    
    42   24   56 1    
    43   25   57 1    
    44   26   27 1    
    45   26   28 1    
    46   26   58 1    
    47   27   59 1    
    48   28   29 1    
    49   28   30 1    
    50   28   60 1    
    51   29   61 1    
    52   30   31 1    
    53   30   32 1    
    54   30   62 1    
    55   32   33 1    
    56   32   63 1    
    57   32   64 1    
    58   33   65 1    
    59   34   35 1    
    60   34   42 1    
    61   34   66 1    
    62   35   36 1    
    63   35   37 1    
    64   35   67 1    
    65   36   68 1    
    66   37   38 1    
    67   37   39 1    
    68   37   69 1    
    69   38   70 1    
    70   39   40 1    
    71   39   41 1    
    72   39   71 1    
    73   40   72 1    
    74   41   42 1    
    75   41   43 1    
    76   41   73 1    
    77   43   44 1    
    78   43   74 1    
    79   43   75 1    
    80   44   76 1    
@<TRIPOS>SUBSTRUCTURE
     1 ****        1 TEMP              0 ****  ****    0 ROOT 
@<TRIPOS>NORMAL
@<TRIPOS>FF_PBC
FORCE_FIELD_SETUP_FEATURE Force Field Setup information
v1.0  0 0.000000 0.000000 0.000000 0.000000 0.000000 0.000000 NONE 0 0 0 0 1 0 0 0 0 0 0 0 0
