@<TRIPOS>MOLECULE
MOL004717
   39    40     1     1     0
SMALL
GASTEIGER


@<TRIPOS>ATOM
      1 C           0.435989   -0.701124   -1.036685 C.3       1 <1>        -0.025252 
      2 C           0.307099    0.764324   -0.503847 C.3       1 <1>        -0.014216 
      3 C          -0.553860   -1.658718   -0.286460 C.3       1 <1>        -0.046531 
      4 C           0.156382    0.768192    1.042026 C.3       1 <1>        -0.039498 
      5 C          -1.225368    0.146616    1.423844 C.3       1 <1>        -0.019838 
      6 C           0.105039   -0.615073   -2.557721 C.3       1 <1>        -0.043631 
      7 C          -1.729172   -0.906327    0.385398 C.3       1 <1>        -0.046000 
      8 C           1.347392    1.642541   -1.164427 C.2       1 <1>        -0.072914 
      9 C           1.878347   -1.283328   -0.859388 C.3       1 <1>        -0.059008 
     10 C           1.092007    0.333188   -3.300833 C.3       1 <1>        -0.033997 
     11 C           1.671346    1.443247   -2.451119 C.2       1 <1>        -0.084726 
     12 C          -1.275059   -0.370083    2.854932 C.2       1 <1>        -0.076591 
     13 C           1.975556    2.742301   -0.338276 C.3       1 <1>        -0.043506 
     14 C          -2.401348    0.159077    3.718616 C.3       1 <1>        -0.043777 
     15 C          -0.390915   -1.249097    3.349245 C.2       1 <1>        -0.099446 
     16 H          -0.622563    1.236895   -0.861663 H         1 <1>         0.035097 
     17 H          -0.045858   -2.208907    0.518045 H         1 <1>         0.027087 
     18 H          -0.947574   -2.420869   -0.978441 H         1 <1>         0.027087 
     19 H           0.191442    1.787702    1.458078 H         1 <1>         0.027684 
     20 H           1.000543    0.221069    1.478483 H         1 <1>         0.027684 
     21 H          -1.957192    0.972685    1.356985 H         1 <1>         0.034560 
     22 H           0.136771   -1.613536   -3.024712 H         1 <1>         0.027364 
     23 H          -0.924231   -0.239279   -2.679786 H         1 <1>         0.027364 
     24 H          -2.308461   -0.426640   -0.422071 H         1 <1>         0.027114 
     25 H          -2.407525   -1.620350    0.882038 H         1 <1>         0.027114 
     26 H           2.155988   -1.375795    0.200109 H         1 <1>         0.023525 
     27 H           1.920626   -2.289660   -1.303738 H         1 <1>         0.023525 
     28 H           2.659646   -0.676802   -1.335562 H         1 <1>         0.023525 
     29 H           1.949668   -0.258923   -3.660557 H         1 <1>         0.030757 
     30 H           0.600485    0.767973   -4.186434 H         1 <1>         0.030757 
     31 H           2.399994    2.095645   -2.934321 H         1 <1>         0.057163 
     32 H           2.730753    3.308947   -0.903456 H         1 <1>         0.027445 
     33 H           1.199884    3.450540   -0.011353 H         1 <1>         0.027445 
     34 H           2.472871    2.310433    0.542908 H         1 <1>         0.027445 
     35 H          -2.417412   -0.287376    4.724433 H         1 <1>         0.027436 
     36 H          -2.296601    1.248753    3.831829 H         1 <1>         0.027436 
     37 H          -3.366096   -0.058218    3.235596 H         1 <1>         0.027436 
     38 H          -0.455632   -1.599195    4.378821 H         1 <1>         0.053440 
     39 H           0.429221   -1.661427    2.767384 H         1 <1>         0.053440 
@<TRIPOS>BOND
     1    1    2 1    
     2    1    3 1    
     3    1    6 1    
     4    1    9 1    
     5    2    4 1    
     6    2    8 1    
     7    2   16 1    
     8    3    7 1    
     9    3   17 1    
    10    3   18 1    
    11    4    5 1    
    12    4   19 1    
    13    4   20 1    
    14    5    7 1    
    15    5   12 1    
    16    5   21 1    
    17    6   10 1    
    18    6   22 1    
    19    6   23 1    
    20    7   24 1    
    21    7   25 1    
    22    8   11 2    
    23    8   13 1    
    24    9   26 1    
    25    9   27 1    
    26    9   28 1    
    27   10   11 1    
    28   10   29 1    
    29   10   30 1    
    30   11   31 1    
    31   12   14 1    
    32   12   15 2    
    33   13   32 1    
    34   13   33 1    
    35   13   34 1    
    36   14   35 1    
    37   14   36 1    
    38   14   37 1    
    39   15   38 1    
    40   15   39 1    
@<TRIPOS>SUBSTRUCTURE
     1 ****        1 TEMP              0 ****  ****    0 ROOT 
@<TRIPOS>NORMAL
@<TRIPOS>FF_PBC
FORCE_FIELD_SETUP_FEATURE Force Field Setup information
v1.0  0 0.000000 0.000000 0.000000 0.000000 0.000000 0.000000 NONE 0 0 0 0 1 0 0 0 0 0 0 0 0
