@<TRIPOS>MOLECULE
MOL004275
   40    41     1     1     0
SMALL
GASTEIGER


@<TRIPOS>ATOM
      1 C          -1.883173   -0.265427   -1.157247 C.3       1 <1>        -0.015262 
      2 C          -2.072111   -0.940350    0.238700 C.3       1 <1>        -0.014438 
      3 C          -0.919859   -0.463741    1.101685 C.2       1 <1>        -0.081886 
      4 C           2.039976    0.398770   -2.159124 C.3       1 <1>        -0.018108 
      5 C           2.801160    0.633939   -0.825334 C.3       1 <1>        -0.031826 
      6 C           2.145012   -0.151391    0.286407 C.2       1 <1>        -0.084640 
      7 C          -0.035925   -1.231820    1.754695 C.2       1 <1>        -0.083439 
      8 C           1.118113   -0.599985    2.496439 C.3       1 <1>        -0.013778 
      9 C           1.900222    0.276850    1.536848 C.2       1 <1>        -0.072811 
     10 C          -3.395517   -0.444596    0.891170 C.3       1 <1>        -0.056266 
     11 C          -2.152376   -2.489893    0.089632 C.3       1 <1>        -0.056266 
     12 C           2.350142    1.617114    2.076339 C.3       1 <1>        -0.043495 
     13 C           0.535745    0.751186   -2.013080 C.3       1 <1>         0.093510 
     14 C          -0.448946   -0.472257   -1.718278 C.3       1 <1>         0.088891 
     15 O          -0.315212    0.173272   -2.964610 O.3       1 <1>        -0.365002 
     16 C           0.147515    2.194283   -1.608528 C.3       1 <1>        -0.033348 
     17 H          -2.602170   -0.681991   -1.879547 H         1 <1>         0.029923 
     18 H          -2.100740    0.806418   -1.066300 H         1 <1>         0.029923 
     19 H          -0.796852    0.616927    1.182619 H         1 <1>         0.057445 
     20 H           2.467679    1.032005   -2.952784 H         1 <1>         0.029662 
     21 H           2.156605   -0.650319   -2.474711 H         1 <1>         0.029662 
     22 H           2.799746    1.715730   -0.629135 H         1 <1>         0.030830 
     23 H           3.846431    0.301717   -0.929977 H         1 <1>         0.030830 
     24 H           1.842083   -1.163687    0.016641 H         1 <1>         0.057164 
     25 H          -0.095560   -2.319073    1.760533 H         1 <1>         0.057228 
     26 H           1.795992   -1.360494    2.914816 H         1 <1>         0.035221 
     27 H           0.690774   -0.020429    3.329969 H         1 <1>         0.035221 
     28 H          -3.523975   -0.899852    1.885469 H         1 <1>         0.023796 
     29 H          -4.259291   -0.718298    0.265790 H         1 <1>         0.023796 
     30 H          -3.394080    0.649353    1.016909 H         1 <1>         0.023796 
     31 H          -2.338484   -2.963295    1.065824 H         1 <1>         0.023796 
     32 H          -2.981443   -2.767569   -0.579023 H         1 <1>         0.023796 
     33 H          -1.226960   -2.910737   -0.327460 H         1 <1>         0.023796 
     34 H           2.561577    1.546068    3.154067 H         1 <1>         0.027445 
     35 H           1.550306    2.356571    1.922363 H         1 <1>         0.027445 
     36 H           3.272983    1.976329    1.599880 H         1 <1>         0.027445 
     37 H          -0.070927   -1.496729   -1.843991 H         1 <1>         0.062505 
     38 H          -0.821601    2.493228   -2.033704 H         1 <1>         0.025813 
     39 H           0.905174    2.895143   -1.988591 H         1 <1>         0.025813 
     40 H           0.111257    2.273206   -0.512796 H         1 <1>         0.025813 
@<TRIPOS>BOND
     1    2    1 1    
     2    1   14 1    
     3    1   17 1    
     4    1   18 1    
     5    3    2 1    
     6    2   10 1    
     7    2   11 1    
     8    7    3 2    
     9    3   19 1    
    10    5    4 1    
    11    4   13 1    
    12    4   20 1    
    13    4   21 1    
    14    6    5 1    
    15    5   22 1    
    16    5   23 1    
    17    9    6 2    
    18    6   24 1    
    19    8    7 1    
    20    7   25 1    
    21    8    9 1    
    22    8   26 1    
    23    8   27 1    
    24    9   12 1    
    25   10   28 1    
    26   10   29 1    
    27   10   30 1    
    28   11   31 1    
    29   11   32 1    
    30   11   33 1    
    31   12   34 1    
    32   12   35 1    
    33   12   36 1    
    34   13   14 1    
    35   13   15 1    
    36   13   16 1    
    37   14   15 1    
    38   14   37 1    
    39   16   38 1    
    40   16   39 1    
    41   16   40 1    
@<TRIPOS>SUBSTRUCTURE
     1 ****        1 TEMP              0 ****  ****    0 ROOT 
@<TRIPOS>NORMAL
@<TRIPOS>FF_PBC
FORCE_FIELD_SETUP_FEATURE Force Field Setup information
v1.0  0 0.000000 0.000000 0.000000 0.000000 0.000000 0.000000 NONE 0 0 0 0 1 0 0 0 0 0 0 0 0
