@<TRIPOS>MOLECULE
MOL000042
   13    12     1     1     0
SMALL
GASTEIGER


@<TRIPOS>ATOM
      1 C           0.983313    0.695571   -0.583893 C.2       1 <1>         0.276267 
      2 N          -0.285153   -1.403053   -0.742494 N.3       1 <1>        -0.319536 
      3 C          -0.378593    0.049495   -0.468666 C.3       1 <1>         0.088543 
      4 C          -0.970126    0.316966    0.940511 C.3       1 <1>        -0.040599 
      5 O           1.199462    1.623173   -1.349175 O.2       1 <1>        -0.263449 
      6 O           1.930557    0.186194    0.207877 O.3       1 <1>        -0.330104 
      7 H          -1.256179   -1.875330   -0.674480 H         1 <1>         0.118914 
      8 H           0.399454   -1.877686   -0.051637 H         1 <1>         0.118914 
      9 H          -1.037989    0.503629   -1.228307 H         1 <1>         0.055932 
     10 H          -1.034682    1.400752    1.125280 H         1 <1>         0.024953 
     11 H          -1.980414   -0.113135    1.019722 H         1 <1>         0.024953 
     12 H          -0.333338   -0.135393    1.716158 H         1 <1>         0.024953 
     13 H           2.763787    0.628817    0.089404 H         1 <1>         0.220259 
@<TRIPOS>BOND
     1    1    3 1    
     2    1    5 2    
     3    1    6 1    
     4    3    2 1    
     5    2    7 1    
     6    2    8 1    
     7    3    4 1    
     8    3    9 1    
     9    4   10 1    
    10    4   11 1    
    11    4   12 1    
    12    6   13 1    
@<TRIPOS>SUBSTRUCTURE
     1 ****        1 TEMP              0 ****  ****    0 ROOT 
@<TRIPOS>NORMAL
@<TRIPOS>FF_PBC
FORCE_FIELD_SETUP_FEATURE Force Field Setup information
v1.0  0 0.000000 0.000000 0.000000 0.000000 0.000000 0.000000 NONE 0 0 0 0 1 0 0 0 0 0 0 0 0
