@<TRIPOS>MOLECULE
MOL000384
   23    22     1     1     0
SMALL
GASTEIGER


@<TRIPOS>ATOM
      1 O          -1.296639   -1.170672   -2.819863 O.2       1 <1>        -0.298200 
      2 C          -1.731507   -0.940770   -1.700860 C.2       1 <1>         0.151210 
      3 C          -1.770663    0.457764   -1.132952 C.3       1 <1>         0.138158 
      4 O          -0.984846    1.381049   -1.918332 O.3       1 <1>        -0.381901 
      5 C          -1.347844    0.454271    0.363360 C.3       1 <1>         0.116314 
      6 O          -2.375092   -0.247334    1.091373 O.3       1 <1>        -0.386131 
      7 C           0.031428   -0.195470    0.685304 C.3       1 <1>         0.118902 
      8 O           0.251350    0.077743    2.086116 O.3       1 <1>        -0.386033 
      9 C           1.186244    0.330752   -0.211972 C.3       1 <1>         0.167996 
     10 O           1.052364   -0.245970   -1.525923 O.3       1 <1>        -0.379175 
     11 C           2.531517   -0.030114    0.379890 C.2       1 <1>         0.291086 
     12 O           3.194781   -0.972594   -0.022966 O.2       1 <1>        -0.262191 
     13 O           2.951571    0.755980    1.376687 O.3       1 <1>        -0.329256 
     14 H          -2.107724   -1.778350   -1.115445 H         1 <1>         0.105461 
     15 H          -2.828674    0.768514   -1.190311 H         1 <1>         0.069684 
     16 H          -1.076085    2.291374   -1.657123 H         1 <1>         0.210454 
     17 H          -1.324364    1.502550    0.709708 H         1 <1>         0.065034 
     18 H          -2.202309   -0.261929    2.029741 H         1 <1>         0.210018 
     19 H          -0.046347   -1.285514    0.537839 H         1 <1>         0.065129 
     20 H           1.026172   -0.334908    2.455497 H         1 <1>         0.210020 
     21 H           1.126213    1.431012   -0.257548 H         1 <1>         0.072556 
     22 H           1.707789    0.061582   -2.145234 H         1 <1>         0.210574 
     23 H           3.811236    0.499318    1.692411 H         1 <1>         0.220293 
@<TRIPOS>BOND
     1    1    2 2    
     2    2    3 1    
     3    2   14 1    
     4    3    4 1    
     5    3    5 1    
     6    3   15 1    
     7    4   16 1    
     8    5    6 1    
     9    5    7 1    
    10    5   17 1    
    11    6   18 1    
    12    7    8 1    
    13    7    9 1    
    14    7   19 1    
    15    8   20 1    
    16    9   10 1    
    17    9   11 1    
    18    9   21 1    
    19   10   22 1    
    20   11   12 2    
    21   11   13 1    
    22   13   23 1    
@<TRIPOS>SUBSTRUCTURE
     1 ****        1 TEMP              0 ****  ****    0 ROOT 
@<TRIPOS>NORMAL
@<TRIPOS>FF_PBC
FORCE_FIELD_SETUP_FEATURE Force Field Setup information
v1.0  0 0.000000 0.000000 0.000000 0.000000 0.000000 0.000000 NONE 0 0 0 0 1 0 0 0 0 0 0 0 0
