@<TRIPOS>MOLECULE
MOL002145
   27    28     1     1     0
SMALL
GASTEIGER


@<TRIPOS>ATOM
      1 C          -0.943079    0.928582    2.442142 C.ar      1 <1>        -0.051368 
      2 C          -1.906210    1.790273    3.175135 C.ar      1 <1>        -0.061082 
      3 C          -3.046559    2.366008    2.488305 C.ar      1 <1>        -0.060982 
      4 C          -3.263265    2.100275    1.042876 C.ar      1 <1>        -0.048209 
      5 C          -2.340698    1.296452    0.412976 C.ar      1 <1>         0.056444 
      6 C          -1.192305    0.713417    1.098611 C.ar      1 <1>         0.018220 
      7 C          -2.198252    0.798139   -1.001681 C.2       1 <1>         0.299431 
      8 O          -1.117712    0.014939   -1.183006 O.3       1 <1>        -0.273550 
      9 C          -0.497537   -0.068950    0.011369 C.2       1 <1>         0.092839 
     10 O          -2.978861    1.073104   -1.897456 O.2       1 <1>        -0.258805 
     11 C           0.621415   -0.784677    0.172764 C.2       1 <1>        -0.024623 
     12 C           1.286739   -1.557769   -0.939950 C.3       1 <1>         0.075776 
     13 C           2.617949   -0.847306   -1.311873 C.3       1 <1>        -0.025998 
     14 C           3.328096   -1.477718   -2.539476 C.3       1 <1>        -0.062640 
     15 O           1.505581   -2.881589   -0.421932 O.3       1 <1>        -0.387686 
     16 H          -0.086365    0.490864    2.941787 H         1 <1>         0.062444 
     17 H          -1.754322    1.989218    4.231054 H         1 <1>         0.061777 
     18 H          -3.745678    2.994017    3.030948 H         1 <1>         0.061779 
     19 H          -4.107585    2.518488    0.505420 H         1 <1>         0.062547 
     20 H           1.093891   -0.822284    1.153108 H         1 <1>         0.062351 
     21 H           0.629007   -1.604577   -1.825828 H         1 <1>         0.063825 
     22 H           2.396386    0.207649   -1.546648 H         1 <1>         0.029052 
     23 H           3.297263   -0.871474   -0.444118 H         1 <1>         0.029052 
     24 H           4.219787   -0.884814   -2.798451 H         1 <1>         0.023066 
     25 H           3.654463   -2.506828   -2.328406 H         1 <1>         0.023066 
     26 H           2.653177   -1.489849   -3.409415 H         1 <1>         0.023066 
     27 H           1.875171   -3.483988   -1.058154 H         1 <1>         0.210208 
@<TRIPOS>BOND
     1    1    2 1    
     2    1    6 2    
     3    1   16 1    
     4    2    3 2    
     5    2   17 1    
     6    3    4 1    
     7    3   18 1    
     8    4    5 2    
     9    4   19 1    
    10    5    6 1    
    11    5    7 1    
    12    6    9 1    
    13    7    8 1    
    14    7   10 2    
    15    8    9 1    
    16    9   11 2    
    17   11   12 1    
    18   11   20 1    
    19   12   13 1    
    20   12   15 1    
    21   12   21 1    
    22   13   14 1    
    23   13   22 1    
    24   13   23 1    
    25   14   24 1    
    26   14   25 1    
    27   14   26 1    
    28   15   27 1    
@<TRIPOS>SUBSTRUCTURE
     1 ****        1 TEMP              0 ****  ****    0 ROOT 
@<TRIPOS>NORMAL
@<TRIPOS>FF_PBC
FORCE_FIELD_SETUP_FEATURE Force Field Setup information
v1.0  0 0.000000 0.000000 0.000000 0.000000 0.000000 0.000000 NONE 0 0 0 0 1 0 0 0 0 0 0 0 0
