@<TRIPOS>MOLECULE
MOL002179
   18    19     1     1     0
SMALL
GASTEIGER


@<TRIPOS>ATOM
      1 C           0.254681    0.327133   -0.643017 C.ar      1 <1>         0.031378 
      2 C          -0.544996    0.110019   -1.869383 C.ar      1 <1>        -0.040526 
      3 C          -1.720110   -0.686414   -1.765294 C.ar      1 <1>        -0.059022 
      4 C          -2.105103   -1.267586   -0.452800 C.ar      1 <1>        -0.048231 
      5 C          -1.298447   -1.026363    0.692888 C.ar      1 <1>         0.018345 
      6 C          -0.086231   -0.192050    0.532926 C.ar      1 <1>        -0.011981 
      7 C           0.935877    0.210225    1.594008 C.3       1 <1>        -0.009415 
      8 C           1.946073    1.087193    0.785573 C.3       1 <1>         0.013191 
      9 N           1.385874    1.049005   -0.558554 N.pl3     1 <1>        -0.343281 
     10 I          -1.794911   -1.810164    2.521872 I         1 <1>        -0.043475 
     11 H          -0.241164    0.545961   -2.814704 H         1 <1>         0.063604 
     12 H          -2.333991   -0.869468   -2.641280 H         1 <1>         0.061846 
     13 H          -3.000213   -1.874559   -0.370269 H         1 <1>         0.062797 
     14 H           0.438061    0.777251    2.396143 H         1 <1>         0.032919 
     15 H           1.408862   -0.691829    2.012769 H         1 <1>         0.032919 
     16 H           2.961997    0.659646    0.790608 H         1 <1>         0.046427 
     17 H           1.978667    2.125274    1.154779 H         1 <1>         0.046427 
     18 H           1.814872    1.526629   -1.366464 H         1 <1>         0.146080 
@<TRIPOS>BOND
     1    1    2 1    
     2    1    6 2    
     3    1    9 1    
     4    2    3 2    
     5    2   11 1    
     6    3    4 1    
     7    3   12 1    
     8    4    5 2    
     9    4   13 1    
    10    5    6 1    
    11    5   10 1    
    12    6    7 1    
    13    7    8 1    
    14    7   14 1    
    15    7   15 1    
    16    8    9 1    
    17    8   16 1    
    18    8   17 1    
    19    9   18 1    
@<TRIPOS>SUBSTRUCTURE
     1 ****        1 TEMP              0 ****  ****    0 ROOT 
@<TRIPOS>NORMAL
@<TRIPOS>FF_PBC
FORCE_FIELD_SETUP_FEATURE Force Field Setup information
v1.0  0 0.000000 0.000000 0.000000 0.000000 0.000000 0.000000 NONE 0 0 0 0 1 0 0 0 0 0 0 0 0
