@<TRIPOS>MOLECULE
MOL000654
   89    88     1     1     0
SMALL
GASTEIGER


@<TRIPOS>ATOM
      1 C          -9.252070    0.141410    0.257368 C.3       1 <1>        -0.053057 
      2 C          -7.868433    0.847380    0.274484 C.3       1 <1>        -0.053057 
      3 C         -10.411301    1.171709    0.163190 C.3       1 <1>        -0.053057 
      4 C          -6.707380   -0.181288    0.356235 C.3       1 <1>        -0.053057 
      5 C         -11.794786    0.464833    0.126756 C.3       1 <1>        -0.053045 
      6 C          -5.325519    0.527876    0.361668 C.3       1 <1>        -0.053057 
      7 C         -12.995859    1.452862    0.175412 C.3       1 <1>        -0.052596 
      8 C          -4.160799   -0.497955    0.425323 C.3       1 <1>        -0.053057 
      9 C         -13.064464    2.403273   -1.052377 C.3       1 <1>        -0.044055 
     10 C          -2.781287    0.215805    0.415716 C.3       1 <1>        -0.053057 
     11 C         -14.363135    3.255146   -1.037399 C.3       1 <1>         0.033189 
     12 C          -1.611483   -0.805305    0.460089 C.3       1 <1>        -0.053057 
     13 C         -14.448148    4.202430   -2.205955 C.2       1 <1>         0.261905 
     14 C          -0.235575   -0.084825    0.438225 C.3       1 <1>        -0.053057 
     15 O         -15.541539    4.979557   -2.218338 O.3       1 <1>        -0.318522 
     16 O         -13.582623    4.248090   -3.066630 O.2       1 <1>        -0.264985 
     17 C           0.940607   -1.099236    0.465961 C.3       1 <1>        -0.053057 
     18 C         -15.601543    5.882187   -3.340368 C.3       1 <1>         0.045865 
     19 C           2.311628   -0.369416    0.439662 C.3       1 <1>        -0.053057 
     20 C           3.495126   -1.375575    0.452948 C.3       1 <1>        -0.053057 
     21 C           4.860930   -0.635952    0.426107 C.3       1 <1>        -0.053057 
     22 C           6.051876   -1.633294    0.434389 C.3       1 <1>        -0.053057 
     23 C           7.412250   -0.883470    0.409582 C.3       1 <1>        -0.053057 
     24 C           8.609903   -1.872622    0.417245 C.3       1 <1>        -0.053057 
     25 C           9.966344   -1.115639    0.392367 C.3       1 <1>        -0.053057 
     26 C          11.167132   -2.101053    0.396383 C.3       1 <1>        -0.053057 
     27 C          12.521963   -1.341546    0.364739 C.3       1 <1>        -0.053057 
     28 C          13.724274   -2.325169    0.366433 C.3       1 <1>        -0.053065 
     29 C          15.077585   -1.563791    0.322917 C.3       1 <1>        -0.053306 
     30 C          16.280885   -2.545683    0.325803 C.3       1 <1>        -0.055911 
     31 C          17.630384   -1.782975    0.273447 C.3       1 <1>        -0.065276 
     32 H          -9.302533   -0.541586   -0.606721 H         1 <1>         0.026528 
     33 H          -9.364991   -0.456212    1.176873 H         1 <1>         0.026528 
     34 H          -7.816170    1.526378    1.141500 H         1 <1>         0.026528 
     35 H          -7.755879    1.449329   -0.642314 H         1 <1>         0.026528 
     36 H         -10.369039    1.849457    1.031463 H         1 <1>         0.026528 
     37 H         -10.269132    1.767154   -0.752064 H         1 <1>         0.026528 
     38 H          -6.763479   -0.861984   -0.509191 H         1 <1>         0.026528 
     39 H          -6.813563   -0.781240    1.275078 H         1 <1>         0.026528 
     40 H         -11.865585   -0.155884   -0.781693 H         1 <1>         0.026529 
     41 H         -11.869610   -0.204776    1.000262 H         1 <1>         0.026529 
     42 H          -5.265501    1.203136    1.231119 H         1 <1>         0.026528 
     43 H          -5.225453    1.134255   -0.553656 H         1 <1>         0.026528 
     44 H         -13.923501    0.856914    0.210423 H         1 <1>         0.026540 
     45 H         -12.943214    2.050859    1.100176 H         1 <1>         0.026540 
     46 H          -4.225567   -1.176007   -0.441571 H         1 <1>         0.026528 
     47 H          -4.254150   -1.101282    1.343332 H         1 <1>         0.026528 
     48 H         -12.205344    3.092561   -1.047159 H         1 <1>         0.027004 
     49 H         -13.032391    1.809576   -1.980830 H         1 <1>         0.027004 
     50 H          -2.712753    0.887812    1.287070 H         1 <1>         0.026528 
     51 H          -2.695194    0.826190   -0.498372 H         1 <1>         0.026528 
     52 H         -15.244548    2.595992   -1.071593 H         1 <1>         0.036606 
     53 H         -14.407146    3.849397   -0.111241 H         1 <1>         0.036606 
     54 H          -1.683140   -1.479189   -0.409500 H         1 <1>         0.026528 
     55 H          -1.691398   -1.413540    1.376115 H         1 <1>         0.026528 
     56 H          -0.161398    0.583988    1.311558 H         1 <1>         0.026528 
     57 H          -0.162463    0.529765   -0.474159 H         1 <1>         0.026528 
     58 H           0.866452   -1.767416   -0.407839 H         1 <1>         0.026528 
     59 H           0.871469   -1.714553    1.378115 H         1 <1>         0.026528 
     60 H         -16.529109    6.467010   -3.253784 H         1 <1>         0.052962 
     61 H         -14.749237    6.580644   -3.338120 H         1 <1>         0.052962 
     62 H         -15.624803    5.333487   -4.295678 H         1 <1>         0.052962 
     63 H           2.387069    0.293589    1.317322 H         1 <1>         0.026528 
     64 H           2.374767    0.252329   -0.468596 H         1 <1>         0.026528 
     65 H           3.421382   -2.037420   -0.425699 H         1 <1>         0.026528 
     66 H           3.434662   -1.998322    1.360627 H         1 <1>         0.026528 
     67 H           4.933576    0.024383    1.305979 H         1 <1>         0.026528 
     68 H           4.917754   -0.010613   -0.480088 H         1 <1>         0.026528 
     69 H           5.982013   -2.292409   -0.446616 H         1 <1>         0.026528 
     70 H           5.996793   -2.259899    1.339754 H         1 <1>         0.026528 
     71 H           7.480164   -0.224083    1.290519 H         1 <1>         0.026528 
     72 H           7.464856   -0.256368   -0.495649 H         1 <1>         0.026528 
     73 H           8.543716   -2.531493   -0.464190 H         1 <1>         0.026528 
     74 H           8.559066   -2.500295    1.322147 H         1 <1>         0.026528 
     75 H          10.032772   -0.457723    1.274555 H         1 <1>         0.026528 
     76 H          10.015265   -0.486428   -0.511630 H         1 <1>         0.026528 
     77 H          11.099023   -2.760986   -0.484148 H         1 <1>         0.026528 
     78 H          11.121276   -2.727898    1.302154 H         1 <1>         0.026528 
     79 H          12.590833   -0.681402    1.245073 H         1 <1>         0.026528 
     80 H          12.566274   -0.714573   -0.541050 H         1 <1>         0.026528 
     81 H          13.652581   -2.989612   -0.510387 H         1 <1>         0.026528 
     82 H          13.684833   -2.947699    1.275499 H         1 <1>         0.026528 
     83 H          15.150015   -0.897382    1.198240 H         1 <1>         0.026520 
     84 H          15.117606   -0.943394   -0.587580 H         1 <1>         0.026520 
     85 H          16.212772   -3.216533   -0.546916 H         1 <1>         0.026265 
     86 H          16.250917   -3.163477    1.238904 H         1 <1>         0.026265 
     87 H          18.469761   -2.496295    0.278069 H         1 <1>         0.022978 
     88 H          17.730541   -1.118826    1.146073 H         1 <1>         0.022978 
     89 H          17.692941   -1.175063   -0.642647 H         1 <1>         0.022978 
@<TRIPOS>BOND
     1    1    2 1    
     2    1    3 1    
     3    1   32 1    
     4    1   33 1    
     5    2    4 1    
     6    2   34 1    
     7    2   35 1    
     8    3    5 1    
     9    3   36 1    
    10    3   37 1    
    11    4    6 1    
    12    4   38 1    
    13    4   39 1    
    14    5    7 1    
    15    5   40 1    
    16    5   41 1    
    17    6    8 1    
    18    6   42 1    
    19    6   43 1    
    20    7    9 1    
    21    7   44 1    
    22    7   45 1    
    23    8   10 1    
    24    8   46 1    
    25    8   47 1    
    26    9   11 1    
    27    9   48 1    
    28    9   49 1    
    29   10   12 1    
    30   10   50 1    
    31   10   51 1    
    32   11   13 1    
    33   11   52 1    
    34   11   53 1    
    35   12   14 1    
    36   12   54 1    
    37   12   55 1    
    38   13   15 1    
    39   13   16 2    
    40   14   17 1    
    41   14   56 1    
    42   14   57 1    
    43   15   18 1    
    44   17   19 1    
    45   17   58 1    
    46   17   59 1    
    47   18   60 1    
    48   18   61 1    
    49   18   62 1    
    50   19   20 1    
    51   19   63 1    
    52   19   64 1    
    53   20   21 1    
    54   20   65 1    
    55   20   66 1    
    56   21   22 1    
    57   21   67 1    
    58   21   68 1    
    59   22   23 1    
    60   22   69 1    
    61   22   70 1    
    62   23   24 1    
    63   23   71 1    
    64   23   72 1    
    65   24   25 1    
    66   24   73 1    
    67   24   74 1    
    68   25   26 1    
    69   25   75 1    
    70   25   76 1    
    71   26   27 1    
    72   26   77 1    
    73   26   78 1    
    74   27   28 1    
    75   27   79 1    
    76   27   80 1    
    77   28   29 1    
    78   28   81 1    
    79   28   82 1    
    80   29   30 1    
    81   29   83 1    
    82   29   84 1    
    83   30   31 1    
    84   30   85 1    
    85   30   86 1    
    86   31   87 1    
    87   31   88 1    
    88   31   89 1    
@<TRIPOS>SUBSTRUCTURE
     1 ****        1 TEMP              0 ****  ****    0 ROOT 
@<TRIPOS>NORMAL
@<TRIPOS>FF_PBC
FORCE_FIELD_SETUP_FEATURE Force Field Setup information
v1.0  0 0.000000 0.000000 0.000000 0.000000 0.000000 0.000000 NONE 0 0 0 0 1 0 0 0 0 0 0 0 0
