@<TRIPOS>MOLECULE
MOL001386
   41    40     1     1     0
SMALL
GASTEIGER


@<TRIPOS>ATOM
      1 C           6.259037    0.415202   -0.000046 C.2       1 <1>         0.261905 
      2 C           5.015472   -0.435429   -0.000130 C.3       1 <1>         0.033189 
      3 C           3.715660    0.413901    0.000047 C.3       1 <1>        -0.044055 
      4 C           2.447548   -0.483077   -0.000082 C.3       1 <1>        -0.052596 
      5 C           1.152910    0.375140    0.000108 C.3       1 <1>        -0.053045 
      6 C          -0.120471   -0.514582   -0.000070 C.3       1 <1>        -0.053057 
      7 C          -1.410371    0.350924    0.000140 C.3       1 <1>        -0.053057 
      8 C          -2.689724   -0.530136   -0.000081 C.3       1 <1>        -0.053057 
      9 C          -3.973427    0.344777    0.000140 C.3       1 <1>        -0.053065 
     10 C          -5.258724   -0.527274   -0.000092 C.3       1 <1>        -0.053306 
     11 C          -6.536848    0.355301    0.000137 C.3       1 <1>        -0.055911 
     12 C          -7.822990   -0.511183   -0.000096 C.3       1 <1>        -0.065276 
     13 O           6.207983    1.635735    0.000082 O.2       1 <1>        -0.264985 
     14 O           7.409949   -0.273875   -0.000121 O.3       1 <1>        -0.318522 
     15 C           8.586492    0.558692   -0.000038 C.3       1 <1>         0.045865 
     16 H           5.040955   -1.078075   -0.893987 H         1 <1>         0.036606 
     17 H           5.041014   -1.078357    0.893514 H         1 <1>         0.036606 
     18 H           3.707754    1.059579    0.893974 H         1 <1>         0.027004 
     19 H           3.707713    1.059898   -0.893664 H         1 <1>         0.027004 
     20 H           2.456969   -1.128720   -0.893708 H         1 <1>         0.026540 
     21 H           2.457017   -1.129064    0.893285 H         1 <1>         0.026540 
     22 H           1.145089    1.021200    0.893475 H         1 <1>         0.026529 
     23 H           1.145068    1.021590   -0.892977 H         1 <1>         0.026529 
     24 H          -0.114484   -1.160328   -0.893599 H         1 <1>         0.026528 
     25 H          -0.114457   -1.160746    0.893172 H         1 <1>         0.026528 
     26 H          -1.414236    0.996927    0.893554 H         1 <1>         0.026528 
     27 H          -1.414235    0.997382   -0.892929 H         1 <1>         0.026528 
     28 H          -2.688175   -1.175954   -0.893571 H         1 <1>         0.026528 
     29 H          -2.688178   -1.176424    0.893085 H         1 <1>         0.026528 
     30 H          -3.973210    0.990761    0.893565 H         1 <1>         0.026528 
     31 H          -3.973199    0.991238   -0.892942 H         1 <1>         0.026528 
     32 H          -5.262165   -1.173016   -0.893669 H         1 <1>         0.026520 
     33 H          -5.262173   -1.173496    0.893132 H         1 <1>         0.026520 
     34 H          -6.538873    1.001652    0.893756 H         1 <1>         0.026265 
     35 H          -6.538869    1.002132   -0.893148 H         1 <1>         0.026265 
     36 H          -8.714989    0.135257    0.000073 H         1 <1>         0.022978 
     37 H          -7.854903   -1.151562   -0.895366 H         1 <1>         0.022978 
     38 H          -7.854907   -1.152037    0.894829 H         1 <1>         0.022978 
     39 H           9.466828   -0.100817   -0.000104 H         1 <1>         0.052962 
     40 H           8.628072    1.193521   -0.899771 H         1 <1>         0.052962 
     41 H           8.628076    1.193342    0.899821 H         1 <1>         0.052962 
@<TRIPOS>BOND
     1    1    2 1    
     2    1   13 2    
     3    1   14 1    
     4    2    3 1    
     5    2   16 1    
     6    2   17 1    
     7    3    4 1    
     8    3   18 1    
     9    3   19 1    
    10    4    5 1    
    11    4   20 1    
    12    4   21 1    
    13    5    6 1    
    14    5   22 1    
    15    5   23 1    
    16    6    7 1    
    17    6   24 1    
    18    6   25 1    
    19    7    8 1    
    20    7   26 1    
    21    7   27 1    
    22    8    9 1    
    23    8   28 1    
    24    8   29 1    
    25    9   10 1    
    26    9   30 1    
    27    9   31 1    
    28   10   11 1    
    29   10   32 1    
    30   10   33 1    
    31   11   12 1    
    32   11   34 1    
    33   11   35 1    
    34   12   36 1    
    35   12   37 1    
    36   12   38 1    
    37   14   15 1    
    38   15   39 1    
    39   15   40 1    
    40   15   41 1    
@<TRIPOS>SUBSTRUCTURE
     1 ****        1 TEMP              0 ****  ****    0 ROOT 
@<TRIPOS>NORMAL
@<TRIPOS>FF_PBC
FORCE_FIELD_SETUP_FEATURE Force Field Setup information
v1.0  0 0.000000 0.000000 0.000000 0.000000 0.000000 0.000000 NONE 0 0 0 0 1 0 0 0 0 0 0 0 0
