@<TRIPOS>MOLECULE
MOL004882
   45    47     1     1     0
SMALL
GASTEIGER


@<TRIPOS>ATOM
      1 C          -0.862334   -0.106654    0.348842 C.ar      1 <1>         0.098122 
      2 C           0.294730    0.595855   -0.012735 C.ar      1 <1>         0.118015 
      3 C           0.330244    2.044179   -0.173566 C.ar      1 <1>         0.368763 
      4 C          -0.817446    2.792417    0.057328 C.ar      1 <1>         0.073213 
      5 C          -2.057614    2.093522    0.479181 C.ar      1 <1>         0.087426 
      6 C          -2.095484    0.679000    0.642922 C.ar      1 <1>         0.017153 
      7 C           2.363265    1.333040   -0.609267 C.ar      1 <1>         0.366923 
      8 C           3.807944    1.463326   -0.949190 C.ar      1 <1>         0.108633 
      9 C           4.396476    2.827762   -0.952335 C.ar      1 <1>        -0.040676 
     10 C           5.749248    3.025127   -1.245487 C.ar      1 <1>        -0.030926 
     11 C           6.623459    1.872454   -1.553551 C.ar      1 <1>         0.075062 
     12 C           6.075178    0.581103   -1.565277 C.ar      1 <1>        -0.001282 
     13 C           4.633528    0.367366   -1.264837 C.ar      1 <1>         0.091121 
     14 O          -3.192279    2.865521    0.723482 O.3       1 <1>        -0.359161 
     15 O           1.575361    2.476200   -0.559223 O.2       1 <1>        -0.203566 
     16 C           1.664105    0.168106   -0.307527 C.ar      1 <1>         0.061817 
     17 O           4.094442   -0.917441   -1.295598 O.3       1 <1>        -0.358852 
     18 C          -3.402930    0.021836    1.127022 C.3       1 <1>        -0.004327 
     19 C          -3.268797   -1.358129    1.728148 C.2       1 <1>        -0.080815 
     20 C          -4.199419   -2.322699    1.638041 C.2       1 <1>        -0.079306 
     21 C          -3.950988   -3.711359    2.185093 C.3       1 <1>        -0.044040 
     22 C          -5.553118   -2.105709    0.997456 C.3       1 <1>        -0.044040 
     23 O           7.974865    2.098503   -1.826934 O.3       1 <1>        -0.359749 
     24 O          -0.825666   -1.494205    0.429115 O.3       1 <1>        -0.346647 
     25 C          -1.356681   -2.182612   -0.715576 C.3       1 <1>         0.043069 
     26 H          -0.808267    3.869240   -0.065405 H         1 <1>         0.073787 
     27 H           3.778378    3.691847   -0.727444 H         1 <1>         0.062801 
     28 H           6.170612    4.025130   -1.249547 H         1 <1>         0.064344 
     29 H           6.707611   -0.269751   -1.793853 H         1 <1>         0.066924 
     30 H          -3.957864    2.560444    0.248238 H         1 <1>         0.217331 
     31 H           2.015593   -0.854418   -0.268688 H         1 <1>         0.072138 
     32 H           4.730785   -1.605170   -1.465636 H         1 <1>         0.217344 
     33 H          -3.843810    0.649840    1.916736 H         1 <1>         0.035721 
     34 H          -4.075511    0.015382    0.257134 H         1 <1>         0.035721 
     35 H          -2.351680   -1.570047    2.277098 H         1 <1>         0.057473 
     36 H          -2.906227   -3.868014    2.492219 H         1 <1>         0.027427 
     37 H          -4.188703   -4.455768    1.410095 H         1 <1>         0.027427 
     38 H          -4.599528   -3.886078    3.056296 H         1 <1>         0.027427 
     39 H          -6.289073   -2.825561    1.387896 H         1 <1>         0.027427 
     40 H          -5.943493   -1.099877    1.215169 H         1 <1>         0.027427 
     41 H          -5.477194   -2.240196   -0.091738 H         1 <1>         0.027427 
     42 H           8.507920    1.313908   -1.894048 H         1 <1>         0.217315 
     43 H          -1.290979   -3.264139   -0.525142 H         1 <1>         0.052870 
     44 H          -0.769245   -1.946257   -1.616091 H         1 <1>         0.052870 
     45 H          -2.411511   -1.921429   -0.891522 H         1 <1>         0.052870 
@<TRIPOS>BOND
     1    2    1 2    
     2    1    6 1    
     3    1   24 1    
     4    3    2 1    
     5    2   16 1    
     6    3    4 2    
     7   15    3 1    
     8    4    5 1    
     9    4   26 1    
    10    5    6 2    
    11    5   14 1    
    12    6   18 1    
    13    7    8 1    
    14    7   15 1    
    15    7   16 2    
    16    8    9 1    
    17    8   13 2    
    18    9   10 2    
    19    9   27 1    
    20   10   11 1    
    21   10   28 1    
    22   11   12 2    
    23   11   23 1    
    24   12   13 1    
    25   12   29 1    
    26   13   17 1    
    27   14   30 1    
    28   16   31 1    
    29   17   32 1    
    30   18   19 1    
    31   18   33 1    
    32   18   34 1    
    33   19   20 2    
    34   19   35 1    
    35   20   21 1    
    36   20   22 1    
    37   21   36 1    
    38   21   37 1    
    39   21   38 1    
    40   22   39 1    
    41   22   40 1    
    42   22   41 1    
    43   23   42 1    
    44   24   25 1    
    45   25   43 1    
    46   25   44 1    
    47   25   45 1    
@<TRIPOS>SUBSTRUCTURE
     1 ****        7 TEMP              0 ****  ****    0 ROOT 
@<TRIPOS>NORMAL
@<TRIPOS>FF_PBC
FORCE_FIELD_SETUP_FEATURE Force Field Setup information
v1.0  0 0.000000 0.000000 0.000000 0.000000 0.000000 0.000000 NONE 0 0 0 0 1 0 0 0 0 0 0 0 0
