@<TRIPOS>MOLECULE
MOL004677
   42    44     1     1     0
SMALL
GASTEIGER


@<TRIPOS>ATOM
      1 O           0.244834    2.581077   -2.517639 O.3       1 <1>        -0.388563 
      2 C           0.462251   -0.944443    0.252612 C.3       1 <1>        -0.028878 
      3 C           1.245725   -1.238717    1.564530 C.3       1 <1>        -0.028416 
      4 C           1.881229   -0.350014    0.463036 C.3       1 <1>        -0.031926 
      5 C          -0.732045    0.052906    0.227644 C.3       1 <1>        -0.029436 
      6 C          -0.670758    1.248317   -0.787958 C.3       1 <1>        -0.009033 
      7 C           1.949570    1.194528    0.565313 C.3       1 <1>        -0.046841 
      8 C          -2.050098   -0.689004   -0.124242 C.3       1 <1>        -0.040417 
      9 C           0.595935    1.453114   -1.688040 C.3       1 <1>         0.066402 
     10 C          -2.026615    1.218636   -1.555705 C.3       1 <1>        -0.047092 
     11 C           1.846381    1.859913   -0.836076 C.3       1 <1>        -0.023716 
     12 C           1.805046   -2.685591    1.652397 C.3       1 <1>        -0.059280 
     13 C           0.787179   -0.651750    2.930272 C.3       1 <1>        -0.059280 
     14 C          -2.973190    0.453443   -0.603127 C.3       1 <1>        -0.049841 
     15 C          -2.638836   -1.509275    1.053446 C.3       1 <1>        -0.062145 
     16 C           0.931277    0.283803   -2.669196 C.3       1 <1>        -0.035809 
     17 H           0.940201    2.871165   -3.099077 H         1 <1>         0.210159 
     18 H           0.409804   -1.809502   -0.426404 H         1 <1>         0.031172 
     19 H           2.676786   -0.835545   -0.124594 H         1 <1>         0.030897 
     20 H          -0.905994    0.464168    1.232103 H         1 <1>         0.030984 
     21 H          -0.729247    2.180362   -0.195791 H         1 <1>         0.033119 
     22 H           2.923729    1.444677    1.016113 H         1 <1>         0.026908 
     23 H           1.183871    1.640593    1.209354 H         1 <1>         0.026908 
     24 H          -1.883418   -1.368756   -0.979047 H         1 <1>         0.030098 
     25 H          -2.410869    2.221961   -1.806321 H         1 <1>         0.026900 
     26 H          -1.957038    0.645402   -2.490214 H         1 <1>         0.026900 
     27 H           2.766827    1.653896   -1.405570 H         1 <1>         0.029291 
     28 H           1.813625    2.949405   -0.664064 H         1 <1>         0.029291 
     29 H           2.676246   -2.696572    2.324179 H         1 <1>         0.023516 
     30 H           1.027077   -3.343052    2.068555 H         1 <1>         0.023516 
     31 H           2.119716   -3.092434    0.679211 H         1 <1>         0.023516 
     32 H           0.591816    0.424291    2.973718 H         1 <1>         0.023516 
     33 H           1.570942   -0.859759    3.673548 H         1 <1>         0.023516 
     34 H          -0.126831   -1.180622    3.238869 H         1 <1>         0.023516 
     35 H          -3.884121    0.086909   -1.104516 H         1 <1>         0.026804 
     36 H          -3.263289    1.096915    0.244022 H         1 <1>         0.026804 
     37 H          -3.570492   -2.003369    0.737197 H         1 <1>         0.023250 
     38 H          -1.918850   -2.280185    1.369193 H         1 <1>         0.023250 
     39 H          -2.862467   -0.861224    1.914526 H         1 <1>         0.023250 
     40 H           0.066269   -0.008805   -3.276593 H         1 <1>         0.025730 
     41 H           1.717632    0.603023   -3.369974 H         1 <1>         0.025730 
     42 H           1.312427   -0.609709   -2.170252 H         1 <1>         0.025730 
@<TRIPOS>BOND
     1    9    1 1    
     2    1   17 1    
     3    2    3 1    
     4    2    4 1    
     5    5    2 1    
     6    2   18 1    
     7    4    3 1    
     8    3   12 1    
     9    3   13 1    
    10    4    7 1    
    11    4   19 1    
    12    6    5 1    
    13    5    8 1    
    14    5   20 1    
    15    6    9 1    
    16    6   10 1    
    17    6   21 1    
    18    7   11 1    
    19    7   22 1    
    20    7   23 1    
    21    8   14 1    
    22    8   15 1    
    23    8   24 1    
    24    9   11 1    
    25    9   16 1    
    26   10   14 1    
    27   10   25 1    
    28   10   26 1    
    29   11   27 1    
    30   11   28 1    
    31   12   29 1    
    32   12   30 1    
    33   12   31 1    
    34   13   32 1    
    35   13   33 1    
    36   13   34 1    
    37   14   35 1    
    38   14   36 1    
    39   15   37 1    
    40   15   38 1    
    41   15   39 1    
    42   16   40 1    
    43   16   41 1    
    44   16   42 1    
@<TRIPOS>SUBSTRUCTURE
     1 ****        2 TEMP              0 ****  ****    0 ROOT 
@<TRIPOS>NORMAL
@<TRIPOS>FF_PBC
FORCE_FIELD_SETUP_FEATURE Force Field Setup information
v1.0  0 0.000000 0.000000 0.000000 0.000000 0.000000 0.000000 NONE 0 0 0 0 1 0 0 0 0 0 0 0 0
