@<TRIPOS>MOLECULE
MOL001904
   23    23     1     1     0
SMALL
GASTEIGER


@<TRIPOS>ATOM
      1 C          -1.316112    1.935174    0.127774 C.ar      1 <1>         0.075742 
      2 C           0.012723    1.271450    0.066686 C.ar      1 <1>        -0.017278 
      3 C           0.096015   -0.157034    0.080622 C.ar      1 <1>        -0.038304 
      4 C          -1.152583   -0.953846    0.193039 C.ar      1 <1>        -0.057871 
      5 C          -2.398341   -0.324907    0.259797 C.ar      1 <1>        -0.059045 
      6 C          -2.488701    1.151991    0.221451 C.ar      1 <1>        -0.031663 
      7 O          -1.389148    3.331616    0.088487 O.3       1 <1>        -0.359562 
      8 C           1.444984   -0.888954   -0.012833 C.3       1 <1>        -0.009400 
      9 C           1.307618   -2.225035   -0.703165 C.2       1 <1>        -0.086791 
     10 C           1.592292   -3.391103   -0.110022 C.2       1 <1>        -0.102320 
     11 C           1.276791    2.139479   -0.008064 C.3       1 <1>        -0.037005 
     12 H          -1.109161   -2.037292    0.229216 H         1 <1>         0.062048 
     13 H          -3.303992   -0.918031    0.341372 H         1 <1>         0.061846 
     14 H          -3.465507    1.621387    0.266469 H         1 <1>         0.064329 
     15 H          -2.271999    3.682643    0.108886 H         1 <1>         0.217325 
     16 H           2.168898   -0.314949   -0.608999 H         1 <1>         0.035552 
     17 H           1.840587   -0.990459    1.009363 H         1 <1>         0.035552 
     18 H           0.955705   -2.227792   -1.736719 H         1 <1>         0.056955 
     19 H           1.475597   -4.330607   -0.650949 H         1 <1>         0.053184 
     20 H           1.944893   -3.439127    0.919859 H         1 <1>         0.053184 
     21 H           1.063173    3.188978    0.240929 H         1 <1>         0.027842 
     22 H           1.685547    2.101072   -1.028637 H         1 <1>         0.027842 
     23 H           2.030720    1.775246    0.705538 H         1 <1>         0.027842 
@<TRIPOS>BOND
     1    1    2 1    
     2    1    6 2    
     3    1    7 1    
     4    2    3 2    
     5    2   11 1    
     6    3    4 1    
     7    3    8 1    
     8    4    5 2    
     9    4   12 1    
    10    5    6 1    
    11    5   13 1    
    12    6   14 1    
    13    7   15 1    
    14    8    9 1    
    15    8   16 1    
    16    8   17 1    
    17    9   10 2    
    18    9   18 1    
    19   10   19 1    
    20   10   20 1    
    21   11   21 1    
    22   11   22 1    
    23   11   23 1    
@<TRIPOS>SUBSTRUCTURE
     1 ****        1 TEMP              0 ****  ****    0 ROOT 
@<TRIPOS>NORMAL
@<TRIPOS>FF_PBC
FORCE_FIELD_SETUP_FEATURE Force Field Setup information
v1.0  0 0.000000 0.000000 0.000000 0.000000 0.000000 0.000000 NONE 0 0 0 0 1 0 0 0 0 0 0 0 0
