@<TRIPOS>MOLECULE
MOL004079
   37    38     1     1     0
SMALL
GASTEIGER


@<TRIPOS>ATOM
      1 C          -0.931184    0.724287    0.706742 C.3       1 <1>        -0.013231 
      2 C          -1.588106   -0.454936    1.467991 C.3       1 <1>        -0.045424 
      3 C          -0.607238   -1.981829   -0.425346 C.3       1 <1>        -0.018397 
      4 C          -1.791093   -1.696487    0.559152 C.3       1 <1>        -0.045895 
      5 C           0.468347    0.222496    0.334356 C.ar      1 <1>        -0.040352 
      6 C          -1.718712    1.262681   -0.529043 C.3       1 <1>        -0.039888 
      7 C           0.633173   -1.094094   -0.181053 C.ar      1 <1>        -0.041069 
      8 C          -0.312523   -3.508368   -0.484093 C.3       1 <1>        -0.058389 
      9 C           1.643105    1.106975    0.534491 C.ar      1 <1>        -0.055111 
     10 C          -3.129476    1.783350   -0.132768 C.3       1 <1>        -0.062115 
     11 C          -0.920468    2.401513   -1.225322 C.3       1 <1>        -0.062115 
     12 C           2.014269   -1.559412   -0.476052 C.ar      1 <1>        -0.057801 
     13 C           2.932960    0.656344    0.246884 C.ar      1 <1>        -0.050163 
     14 C           3.117334   -0.720124   -0.269798 C.ar      1 <1>        -0.058555 
     15 C           4.144662    1.569442    0.460786 C.3       1 <1>        -0.039700 
     16 H          -0.826289    1.553361    1.426735 H         1 <1>         0.035139 
     17 H          -2.541717   -0.157347    1.932548 H         1 <1>         0.027133 
     18 H          -0.908936   -0.734920    2.292944 H         1 <1>         0.027133 
     19 H          -0.922684   -1.705850   -1.445781 H         1 <1>         0.034620 
     20 H          -1.955684   -2.554533    1.232687 H         1 <1>         0.027116 
     21 H          -2.721749   -1.570486   -0.019735 H         1 <1>         0.027116 
     22 H          -1.854921    0.463085   -1.272812 H         1 <1>         0.030128 
     23 H           0.190738   -3.828551    0.441059 H         1 <1>         0.023554 
     24 H          -1.252955   -4.072660   -0.586892 H         1 <1>         0.023554 
     25 H           0.313947   -3.774904   -1.348610 H         1 <1>         0.023554 
     26 H           1.499728    2.115494    0.907307 H         1 <1>         0.062308 
     27 H          -3.636372    2.224191   -1.005205 H         1 <1>         0.023251 
     28 H          -3.049535    2.554667    0.648430 H         1 <1>         0.023251 
     29 H          -3.766070    0.967257    0.238958 H         1 <1>         0.023251 
     30 H          -1.477651    2.792412   -2.090985 H         1 <1>         0.023251 
     31 H          -0.741676    3.230523   -0.523622 H         1 <1>         0.023251 
     32 H           0.050346    2.034249   -1.591672 H         1 <1>         0.023251 
     33 H           2.199610   -2.555598   -0.856152 H         1 <1>         0.062054 
     34 H           4.116241   -1.081565   -0.491913 H         1 <1>         0.062029 
     35 H           4.287347    2.188123   -0.437473 H         1 <1>         0.027753 
     36 H           3.988202    2.226076    1.330031 H         1 <1>         0.027753 
     37 H           5.053532    0.974238    0.635025 H         1 <1>         0.027753 
@<TRIPOS>BOND
     1    1    2 1    
     2    1    5 1    
     3    1    6 1    
     4    1   16 1    
     5    2    4 1    
     6    2   17 1    
     7    2   18 1    
     8    4    3 1    
     9    3    7 1    
    10    3    8 1    
    11    3   19 1    
    12    4   20 1    
    13    4   21 1    
    14    5    7 2    
    15    5    9 1    
    16    6   10 1    
    17    6   11 1    
    18    6   22 1    
    19    7   12 1    
    20    8   23 1    
    21    8   24 1    
    22    8   25 1    
    23    9   13 2    
    24    9   26 1    
    25   10   27 1    
    26   10   28 1    
    27   10   29 1    
    28   11   30 1    
    29   11   31 1    
    30   11   32 1    
    31   12   14 2    
    32   12   33 1    
    33   13   14 1    
    34   13   15 1    
    35   14   34 1    
    36   15   35 1    
    37   15   36 1    
    38   15   37 1    
@<TRIPOS>SUBSTRUCTURE
     1 ****        1 TEMP              0 ****  ****    0 ROOT 
@<TRIPOS>NORMAL
@<TRIPOS>FF_PBC
FORCE_FIELD_SETUP_FEATURE Force Field Setup information
v1.0  0 0.000000 0.000000 0.000000 0.000000 0.000000 0.000000 NONE 0 0 0 0 1 0 0 0 0 0 0 0 0
