@<TRIPOS>MOLECULE
MOL001578
   17    17     1     1     0
SMALL
GASTEIGER


@<TRIPOS>ATOM
      1 C           0.382974    0.079377   -0.020563 C.ar      1 <1>         0.017111 
      2 C           0.966065   -1.240078    0.331903 C.ar      1 <1>        -0.051275 
      3 C          -1.026069    0.215798   -0.059031 C.ar      1 <1>        -0.051275 
      4 C           1.310002    1.238163   -0.327948 C.2       1 <1>         0.160113 
      5 C           0.135341   -2.334571    0.622292 C.ar      1 <1>        -0.061097 
      6 C          -1.900133   -0.941623    0.248057 C.ar      1 <1>        -0.061097 
      7 C           0.792176    2.605045   -0.692928 C.3       1 <1>        -0.001410 
      8 O           2.517286    1.063525   -0.279617 O.2       1 <1>        -0.292356 
      9 C          -1.337479   -2.181445    0.579266 C.ar      1 <1>        -0.061720 
     10 H           2.043729   -1.363701    0.366471 H         1 <1>         0.062450 
     11 H          -1.488399    1.162650   -0.312021 H         1 <1>         0.062450 
     12 H           0.570055   -3.295439    0.878985 H         1 <1>         0.061777 
     13 H          -2.979005   -0.826186    0.215669 H         1 <1>         0.061777 
     14 H           1.625773    3.300185   -0.876972 H         1 <1>         0.030932 
     15 H           0.181014    3.005120    0.129566 H         1 <1>         0.030932 
     16 H           0.183497    2.542362   -1.607071 H         1 <1>         0.030932 
     17 H          -1.976728   -3.029381    0.804241 H         1 <1>         0.061759 
@<TRIPOS>BOND
     1    1    2 1    
     2    1    3 2    
     3    1    4 1    
     4    2    5 2    
     5    2   10 1    
     6    3    6 1    
     7    3   11 1    
     8    4    7 1    
     9    4    8 2    
    10    5    9 1    
    11    5   12 1    
    12    6    9 2    
    13    6   13 1    
    14    7   14 1    
    15    7   15 1    
    16    7   16 1    
    17    9   17 1    
@<TRIPOS>SUBSTRUCTURE
     1 ****        1 TEMP              0 ****  ****    0 ROOT 
@<TRIPOS>NORMAL
@<TRIPOS>FF_PBC
FORCE_FIELD_SETUP_FEATURE Force Field Setup information
v1.0  0 0.000000 0.000000 0.000000 0.000000 0.000000 0.000000 NONE 0 0 0 0 1 0 0 0 0 0 0 0 0
