@<TRIPOS>MOLECULE
MOL002284
   30    31     1     1     0
SMALL
GASTEIGER


@<TRIPOS>ATOM
      1 C          -1.867814   -0.390357    0.074386 C.ar      1 <1>        -0.022421 
      2 C          -1.936582   -1.929025    0.144942 C.ar      1 <1>        -0.022251 
      3 C          -3.238124   -2.630622    0.071741 C.ar      1 <1>         0.102746 
      4 C          -4.538160   -1.830571   -0.064013 C.ar      1 <1>         0.102220 
      5 C          -4.480336   -0.349333   -0.121639 C.ar      1 <1>        -0.028849 
      6 C          -3.135094    0.370839   -0.052369 C.ar      1 <1>        -0.052000 
      7 O          -5.756157   -2.512473   -0.131282 O.3       1 <1>        -0.357274 
      8 O          -3.269803   -4.023911    0.127796 O.3       1 <1>        -0.357261 
      9 C          -0.564866    0.381689    0.136534 C.2       1 <1>        -0.053953 
     10 C           0.632994   -0.153738   -0.138756 C.2       1 <1>        -0.053877 
     11 C           1.948151    0.598084   -0.077415 C.ar      1 <1>        -0.020152 
     12 C           3.241385   -0.228697   -0.030522 C.ar      1 <1>        -0.024623 
     13 C           4.567232    0.424441    0.041483 C.ar      1 <1>         0.075576 
     14 C           4.655969    1.950788    0.069901 C.ar      1 <1>        -0.002134 
     15 C           3.424028    2.768088    0.016049 C.ar      1 <1>         0.075576 
     16 C           2.050003    2.080215   -0.064122 C.ar      1 <1>        -0.024623 
     17 O           5.716950   -0.364918    0.084292 O.3       1 <1>        -0.359731 
     18 O           3.530470    4.159243    0.035113 O.3       1 <1>        -0.359731 
     19 H          -1.042169   -2.528340    0.254556 H         1 <1>         0.064993 
     20 H          -5.390995    0.232260   -0.213518 H         1 <1>         0.064421 
     21 H          -3.114642    1.454484   -0.098107 H         1 <1>         0.062425 
     22 H          -6.508382   -1.938732   -0.222200 H         1 <1>         0.217422 
     23 H          -4.163910   -4.345377    0.070882 H         1 <1>         0.217422 
     24 H          -0.655375    1.425413    0.426272 H         1 <1>         0.062362 
     25 H           0.709805   -1.198150   -0.431161 H         1 <1>         0.062363 
     26 H           3.194708   -1.311658   -0.045903 H         1 <1>         0.064912 
     27 H           5.618130    2.446229    0.127588 H         1 <1>         0.066901 
     28 H           1.163931    2.698434   -0.116968 H         1 <1>         0.064912 
     29 H           6.518860    0.143608    0.119361 H         1 <1>         0.217315 
     30 H           2.689790    4.601186    0.007179 H         1 <1>         0.217315 
@<TRIPOS>BOND
     1    1    2 2    
     2    1    6 1    
     3    1    9 1    
     4    2    3 1    
     5    2   19 1    
     6    3    4 2    
     7    3    8 1    
     8    4    5 1    
     9    4    7 1    
    10    5    6 2    
    11    5   20 1    
    12    6   21 1    
    13    7   22 1    
    14    8   23 1    
    15    9   10 2    
    16    9   24 1    
    17   10   11 1    
    18   10   25 1    
    19   11   12 2    
    20   11   16 1    
    21   12   13 1    
    22   12   26 1    
    23   13   14 2    
    24   13   17 1    
    25   14   15 1    
    26   14   27 1    
    27   15   16 2    
    28   15   18 1    
    29   16   28 1    
    30   17   29 1    
    31   18   30 1    
@<TRIPOS>SUBSTRUCTURE
     1 ****        1 TEMP              0 ****  ****    0 ROOT 
@<TRIPOS>NORMAL
@<TRIPOS>FF_PBC
FORCE_FIELD_SETUP_FEATURE Force Field Setup information
v1.0  0 0.000000 0.000000 0.000000 0.000000 0.000000 0.000000 NONE 0 0 0 0 1 0 0 0 0 0 0 0 0
