@<TRIPOS>MOLECULE
MOL001212
   45    44     1     1     0
SMALL
GASTEIGER


@<TRIPOS>ATOM
      1 C          -8.104595    0.451353    0.000124 C.3       1 <1>         0.044206 
      2 C          -6.824747   -0.422352   -0.000119 C.3       1 <1>        -0.029718 
      3 C          -5.537306    0.446713    0.000123 C.3       1 <1>        -0.050987 
      4 C          -4.257924   -0.434351   -0.000123 C.3       1 <1>        -0.052986 
      5 C          -2.972523    0.438021    0.000122 C.3       1 <1>        -0.053056 
      6 C          -1.689624   -0.437824   -0.000125 C.3       1 <1>        -0.053057 
      7 C          -0.407597    0.439607    0.000122 C.3       1 <1>        -0.053057 
      8 C           0.877103   -0.433395   -0.000124 C.3       1 <1>        -0.053057 
      9 C           2.158841    0.444323    0.000123 C.3       1 <1>        -0.053057 
     10 C           3.442183   -0.430810   -0.000123 C.3       1 <1>        -0.053057 
     11 C           4.726149    0.443461    0.000125 C.3       1 <1>        -0.053065 
     12 C           6.006924   -0.435427   -0.000120 C.3       1 <1>        -0.053306 
     13 C           7.292638    0.435682    0.000127 C.3       1 <1>        -0.055911 
     14 C           8.569335   -0.445046   -0.000116 C.3       1 <1>        -0.065276 
     15 O          -9.248870   -0.420935   -0.000117 O.3       1 <1>        -0.395007 
     16 H          -8.114820    1.093299    0.897859 H         1 <1>         0.055696 
     17 H          -8.114821    1.093793   -0.897259 H         1 <1>         0.055696 
     18 H          -6.838422   -1.068586   -0.893153 H         1 <1>         0.028724 
     19 H          -6.838422   -1.069078    0.892557 H         1 <1>         0.028724 
     20 H          -5.534638    1.092356    0.893731 H         1 <1>         0.026599 
     21 H          -5.534638    1.092851   -0.893128 H         1 <1>         0.026599 
     22 H          -4.260200   -1.080238   -0.893611 H         1 <1>         0.026529 
     23 H          -4.260201   -1.080734    0.893004 H         1 <1>         0.026529 
     24 H          -2.971395    1.083897    0.893638 H         1 <1>         0.026528 
     25 H          -2.971395    1.084396   -0.893034 H         1 <1>         0.026528 
     26 H          -1.689302   -1.083631   -0.893634 H         1 <1>         0.026528 
     27 H          -1.689302   -1.084130    0.893024 H         1 <1>         0.026528 
     28 H          -0.408304    1.085495    0.893644 H         1 <1>         0.026528 
     29 H          -0.408304    1.085995   -0.893038 H         1 <1>         0.026528 
     30 H           0.878148   -1.079200   -0.893622 H         1 <1>         0.026528 
     31 H           0.878147   -1.079699    0.893013 H         1 <1>         0.026528 
     32 H           2.158475    1.090197    0.893610 H         1 <1>         0.026528 
     33 H           2.158476    1.090696   -0.893002 H         1 <1>         0.026528 
     34 H           3.441913   -1.076679   -0.893632 H         1 <1>         0.026528 
     35 H           3.441912   -1.077179    0.893024 H         1 <1>         0.026528 
     36 H           4.727410    1.089260    0.893652 H         1 <1>         0.026528 
     37 H           4.727412    1.089759   -0.893040 H         1 <1>         0.026528 
     38 H           6.005958   -1.081236   -0.893639 H         1 <1>         0.026520 
     39 H           6.005955   -1.081737    0.893036 H         1 <1>         0.026520 
     40 H           7.300828    1.081900    0.893832 H         1 <1>         0.026265 
     41 H           7.300832    1.082400   -0.893216 H         1 <1>         0.026265 
     42 H           9.468881    0.190721    0.000064 H         1 <1>         0.022978 
     43 H           8.593837   -1.085891   -0.895291 H         1 <1>         0.022978 
     44 H           8.593832   -1.086393    0.894699 H         1 <1>         0.022978 
     45 H         -10.077838    0.048779    0.000013 H         1 <1>         0.209395 
@<TRIPOS>BOND
     1    1    2 1    
     2    1   15 1    
     3    1   16 1    
     4    1   17 1    
     5    2    3 1    
     6    2   18 1    
     7    2   19 1    
     8    3    4 1    
     9    3   20 1    
    10    3   21 1    
    11    4    5 1    
    12    4   22 1    
    13    4   23 1    
    14    5    6 1    
    15    5   24 1    
    16    5   25 1    
    17    6    7 1    
    18    6   26 1    
    19    6   27 1    
    20    7    8 1    
    21    7   28 1    
    22    7   29 1    
    23    8    9 1    
    24    8   30 1    
    25    8   31 1    
    26    9   10 1    
    27    9   32 1    
    28    9   33 1    
    29   10   11 1    
    30   10   34 1    
    31   10   35 1    
    32   11   12 1    
    33   11   36 1    
    34   11   37 1    
    35   12   13 1    
    36   12   38 1    
    37   12   39 1    
    38   13   14 1    
    39   13   40 1    
    40   13   41 1    
    41   14   42 1    
    42   14   43 1    
    43   14   44 1    
    44   15   45 1    
@<TRIPOS>SUBSTRUCTURE
     1 ****        1 TEMP              0 ****  ****    0 ROOT 
@<TRIPOS>NORMAL
@<TRIPOS>FF_PBC
FORCE_FIELD_SETUP_FEATURE Force Field Setup information
v1.0  0 0.000000 0.000000 0.000000 0.000000 0.000000 0.000000 NONE 0 0 0 0 1 0 0 0 0 0 0 0 0
