@<TRIPOS>MOLECULE
MOL002167
   15    15     1     1     0
SMALL
GASTEIGER


@<TRIPOS>ATOM
      1 O           1.414361   -1.382367   -0.793821 O.2       1 <1>        -0.206635 
      2 C           0.618987   -0.381731   -0.164374 C.ar      1 <1>         0.426138 
      3 C          -0.732088   -0.625583   -0.413913 C.ar      1 <1>         0.057065 
      4 C          -0.780231   -1.838505   -1.243775 C.ar      1 <1>         0.043677 
      5 C           0.499986   -2.227890   -1.428109 C.ar      1 <1>         0.322333 
      6 C           1.315225    0.714984    0.625500 C.2       1 <1>         0.391346 
      7 O           2.525850    0.595347    0.710688 O.2       1 <1>        -0.249476 
      8 O           0.815173    1.802880    1.244253 O.3       1 <1>        -0.308202 
      9 C          -0.599992    2.037304    1.205186 C.3       1 <1>         0.046479 
     10 H          -1.606316   -0.077592   -0.092688 H         1 <1>         0.071617 
     11 H          -1.670824   -2.323671   -1.630860 H         1 <1>         0.070736 
     12 H           0.792379   -3.101752   -2.005253 H         1 <1>         0.175993 
     13 H          -0.770554    2.985375    1.737646 H         1 <1>         0.052976 
     14 H          -1.155891    1.256409    1.745769 H         1 <1>         0.052976 
     15 H          -0.969336    2.168132    0.176477 H         1 <1>         0.052976 
@<TRIPOS>BOND
     1    1    2 1    
     2    1    5 1    
     3    2    3 2    
     4    2    6 1    
     5    3    4 1    
     6    3   10 1    
     7    4    5 2    
     8    4   11 1    
     9    5   12 1    
    10    6    7 2    
    11    6    8 1    
    12    8    9 1    
    13    9   13 1    
    14    9   14 1    
    15    9   15 1    
@<TRIPOS>SUBSTRUCTURE
     1 ****        1 TEMP              0 ****  ****    0 ROOT 
@<TRIPOS>NORMAL
@<TRIPOS>FF_PBC
FORCE_FIELD_SETUP_FEATURE Force Field Setup information
v1.0  0 0.000000 0.000000 0.000000 0.000000 0.000000 0.000000 NONE 0 0 0 0 1 0 0 0 0 0 0 0 0
