@<TRIPOS>MOLECULE
MOL003970
   25    25     1     1     0
SMALL
GASTEIGER


@<TRIPOS>ATOM
      1 C          -0.746371   -0.090474   -0.595497 C.ar      1 <1>        -0.017785 
      2 C           0.193410    1.074051   -0.945638 C.3       1 <1>         0.092579 
      3 C          -0.210576   -1.470425   -0.494792 C.ar      1 <1>        -0.053654 
      4 C          -2.125334    0.130847   -0.368509 C.ar      1 <1>        -0.053654 
      5 C           0.969162    1.571216    0.311742 C.3       1 <1>         0.025824 
      6 O           1.104462    0.613042   -1.960290 O.3       1 <1>        -0.385916 
      7 C          -1.061728   -2.542586   -0.182730 C.ar      1 <1>        -0.031601 
      8 C          -3.025316   -1.001448   -0.041665 C.ar      1 <1>        -0.031601 
      9 N           2.407358    1.232846    0.211307 N.3       1 <1>        -0.316208 
     10 C          -2.506584   -2.314474    0.050147 C.ar      1 <1>         0.072600 
     11 C           3.260044    1.687063    1.331903 C.3       1 <1>        -0.015686 
     12 O          -3.327413   -3.403199    0.357122 O.3       1 <1>        -0.359832 
     13 H          -0.414478    1.892218   -1.371859 H         1 <1>         0.065623 
     14 H           0.845523   -1.654328   -0.664893 H         1 <1>         0.062190 
     15 H          -2.538731    1.131459   -0.431187 H         1 <1>         0.062190 
     16 H           0.894524    2.668939    0.375216 H         1 <1>         0.045255 
     17 H           0.535783    1.151022    1.234160 H         1 <1>         0.045255 
     18 H           1.744468    1.278013   -2.196813 H         1 <1>         0.210287 
     19 H          -0.667697   -3.550304   -0.110258 H         1 <1>         0.064329 
     20 H          -4.081058   -0.809908    0.124889 H         1 <1>         0.064329 
     21 H           2.533787    0.169095    0.047291 H         1 <1>         0.121735 
     22 H           4.315572    1.478741    1.096111 H         1 <1>         0.038809 
     23 H           3.149754    2.772012    1.480842 H         1 <1>         0.038809 
     24 H           2.994697    1.168748    2.266717 H         1 <1>         0.038809 
     25 H          -4.243455   -3.182467    0.476479 H         1 <1>         0.217313 
@<TRIPOS>BOND
     1    1    2 1    
     2    1    3 1    
     3    1    4 2    
     4    2    5 1    
     5    2    6 1    
     6    2   13 1    
     7    3    7 2    
     8    3   14 1    
     9    4    8 1    
    10    4   15 1    
    11    5    9 1    
    12    5   16 1    
    13    5   17 1    
    14    6   18 1    
    15    7   10 1    
    16    7   19 1    
    17    8   10 2    
    18    8   20 1    
    19    9   11 1    
    20    9   21 1    
    21   10   12 1    
    22   11   22 1    
    23   11   23 1    
    24   11   24 1    
    25   12   25 1    
@<TRIPOS>SUBSTRUCTURE
     1 ****        1 TEMP              0 ****  ****    0 ROOT 
@<TRIPOS>NORMAL
@<TRIPOS>FF_PBC
FORCE_FIELD_SETUP_FEATURE Force Field Setup information
v1.0  0 0.000000 0.000000 0.000000 0.000000 0.000000 0.000000 NONE 0 0 0 0 1 0 0 0 0 0 0 0 0
