@<TRIPOS>MOLECULE
MOL004901
   80    84     1     1     0
SMALL
GASTEIGER


@<TRIPOS>ATOM
      1 C           3.941712   -3.542448    0.379991 C.3       1 <1>         0.056847 
      2 C           5.252634   -2.702636    0.395097 C.3       1 <1>        -0.037508 
      3 C           5.016927   -1.260481    0.927546 C.3       1 <1>        -0.042931 
      4 C           3.867025   -0.491031    0.206907 C.3       1 <1>        -0.010415 
      5 C           2.626200   -1.384011    0.214612 C.2       1 <1>        -0.058942 
      6 C           2.851356   -2.761520   -0.403631 C.3       1 <1>        -0.016210 
      7 C           3.633682    0.872680    0.932519 C.3       1 <1>        -0.043091 
      8 C           2.161524    1.335924    0.794463 C.3       1 <1>        -0.042314 
      9 C           1.087742    0.337158    1.343095 C.3       1 <1>        -0.001120 
     10 C           1.419571   -1.009404    0.697092 C.2       1 <1>        -0.041412 
     11 C          -0.441431    0.766758    1.008518 C.3       1 <1>        -0.015931 
     12 C          -0.899740    0.064086   -0.323595 C.3       1 <1>        -0.010742 
     13 C          -0.852216   -1.414426    0.030879 C.2       1 <1>        -0.079573 
     14 C           0.263169   -1.914885    0.573224 C.2       1 <1>        -0.061683 
     15 C          -0.624058    2.329243    0.843833 C.3       1 <1>        -0.045984 
     16 C          -1.769794    2.887030   -0.068869 C.3       1 <1>        -0.048508 
     17 C          -2.848799    1.850231   -0.448241 C.3       1 <1>        -0.025215 
     18 C          -2.184848    0.590753   -1.122529 C.3       1 <1>        -0.021728 
     19 C          -4.200493    2.428238   -1.038408 C.3       1 <1>         0.020282 
     20 C          -5.221104    1.246898   -1.131042 C.3       1 <1>         0.062974 
     21 C          -4.640482    0.006097   -1.861051 C.3       1 <1>        -0.025737 
     22 C          -3.319152   -0.482963   -1.204257 C.3       1 <1>        -0.044446 
     23 O           2.258115   -4.454483    1.851593 O.3       1 <1>        -0.330850 
     24 C           4.211370   -4.912336   -0.309658 C.3       1 <1>        -0.050202 
     25 C           3.442128   -3.840791    1.779816 C.2       1 <1>         0.265846 
     26 O           4.071462   -3.556131    2.787012 O.2       1 <1>        -0.264556 
     27 C          -1.678556    0.858797   -2.584827 C.3       1 <1>        -0.058735 
     28 C          -1.373656    0.248402    2.177208 C.3       1 <1>        -0.058208 
     29 C           1.361062    0.165425    2.879728 C.3       1 <1>        -0.055018 
     30 C           4.280591   -0.154971   -1.266374 C.3       1 <1>        -0.055823 
     31 C          -4.836152    3.484915   -0.061934 C.3       1 <1>         0.052200 
     32 C          -4.103225    3.159866   -2.417197 C.3       1 <1>        -0.054830 
     33 O          -6.413449    1.695803   -1.802381 O.3       1 <1>        -0.391162 
     34 O          -4.215241    4.777845   -0.210913 O.3       1 <1>        -0.394374 
     35 H           6.002749   -3.205104    1.028246 H         1 <1>         0.027568 
     36 H           5.676972   -2.659642   -0.619140 H         1 <1>         0.027568 
     37 H           5.953879   -0.685335    0.845258 H         1 <1>         0.027386 
     38 H           4.770691   -1.335562    1.997756 H         1 <1>         0.027386 
     39 H           1.965042   -3.402128   -0.466903 H         1 <1>         0.032046 
     40 H           3.155081   -2.652042   -1.450498 H         1 <1>         0.032046 
     41 H           4.274751    1.663611    0.508070 H         1 <1>         0.027384 
     42 H           3.942016    0.845418    1.986198 H         1 <1>         0.027384 
     43 H           2.124712    2.287333    1.350962 H         1 <1>         0.027410 
     44 H           1.982231    1.522201   -0.275841 H         1 <1>         0.027410 
     45 H          -0.021840    0.224603   -0.970263 H         1 <1>         0.035395 
     46 H          -1.669130   -2.122105   -0.084516 H         1 <1>         0.057525 
     47 H           0.290585   -2.953662    0.906134 H         1 <1>         0.061744 
     48 H          -0.688409    2.766457    1.854502 H         1 <1>         0.027105 
     49 H           0.234135    2.820331    0.377776 H         1 <1>         0.027105 
     50 H          -1.384620    3.295919   -1.015686 H         1 <1>         0.026847 
     51 H          -2.209986    3.736693    0.471178 H         1 <1>         0.026847 
     52 H          -3.215261    1.526435    0.519156 H         1 <1>         0.031300 
     53 H          -5.491903    0.932919   -0.106812 H         1 <1>         0.059936 
     54 H          -4.514390    0.210603   -2.933053 H         1 <1>         0.029039 
     55 H          -5.381834   -0.810605   -1.793344 H         1 <1>         0.029039 
     56 H          -2.982818   -1.356824   -1.787465 H         1 <1>         0.027158 
     57 H          -3.579355   -0.811063   -0.184090 H         1 <1>         0.027158 
     58 H           1.995600   -4.610477    2.751482 H         1 <1>         0.220226 
     59 H           3.296997   -5.525525   -0.338401 H         1 <1>         0.023996 
     60 H           4.983065   -5.471062    0.241813 H         1 <1>         0.023996 
     61 H           4.558388   -4.769390   -1.344631 H         1 <1>         0.023996 
     62 H          -2.446210    1.118051   -3.310820 H         1 <1>         0.023534 
     63 H          -0.923791    1.658187   -2.616406 H         1 <1>         0.023534 
     64 H          -1.207554   -0.056751   -2.979005 H         1 <1>         0.023534 
     65 H          -1.209815   -0.808823    2.419886 H         1 <1>         0.023552 
     66 H          -2.445999    0.271178    1.998787 H         1 <1>         0.023552 
     67 H          -1.214396    0.827874    3.097495 H         1 <1>         0.023552 
     68 H           2.378436   -0.174182    3.100278 H         1 <1>         0.023838 
     69 H           0.750422   -0.602126    3.368896 H         1 <1>         0.023838 
     70 H           1.201073    1.123316    3.397770 H         1 <1>         0.023838 
     71 H           4.612762   -1.015961   -1.854722 H         1 <1>         0.023812 
     72 H           3.436109    0.303526   -1.801538 H         1 <1>         0.023812 
     73 H           5.126502    0.548577   -1.289523 H         1 <1>         0.023812 
     74 H          -4.777908    3.160378    0.989776 H         1 <1>         0.056334 
     75 H          -5.907686    3.609263   -0.300395 H         1 <1>         0.056334 
     76 H          -4.969560    3.824891   -2.558517 H         1 <1>         0.023667 
     77 H          -4.136729    2.496550   -3.285258 H         1 <1>         0.023667 
     78 H          -3.198056    3.779924   -2.474267 H         1 <1>         0.023667 
     79 H          -7.099037    1.035923   -1.849195 H         1 <1>         0.209801 
     80 H          -4.588723    5.453298    0.348993 H         1 <1>         0.209420 
@<TRIPOS>BOND
     1    1    2 1    
     2    1    6 1    
     3    1   24 1    
     4    1   25 1    
     5    2    3 1    
     6    2   35 1    
     7    2   36 1    
     8    3    4 1    
     9    3   37 1    
    10    3   38 1    
    11    4    5 1    
    12    4    7 1    
    13    4   30 1    
    14    5    6 1    
    15    5   10 2    
    16    6   39 1    
    17    6   40 1    
    18    7    8 1    
    19    7   41 1    
    20    7   42 1    
    21    8    9 1    
    22    8   43 1    
    23    8   44 1    
    24    9   10 1    
    25    9   11 1    
    26    9   29 1    
    27   10   14 1    
    28   11   12 1    
    29   11   15 1    
    30   11   28 1    
    31   12   13 1    
    32   12   18 1    
    33   12   45 1    
    34   13   14 2    
    35   13   46 1    
    36   14   47 1    
    37   15   16 1    
    38   15   48 1    
    39   15   49 1    
    40   16   17 1    
    41   16   50 1    
    42   16   51 1    
    43   17   18 1    
    44   17   19 1    
    45   17   52 1    
    46   18   22 1    
    47   18   27 1    
    48   19   20 1    
    49   19   31 1    
    50   19   32 1    
    51   20   21 1    
    52   20   33 1    
    53   20   53 1    
    54   21   22 1    
    55   21   54 1    
    56   21   55 1    
    57   22   56 1    
    58   22   57 1    
    59   25   23 1    
    60   23   58 1    
    61   24   59 1    
    62   24   60 1    
    63   24   61 1    
    64   25   26 2    
    65   27   62 1    
    66   27   63 1    
    67   27   64 1    
    68   28   65 1    
    69   28   66 1    
    70   28   67 1    
    71   29   68 1    
    72   29   69 1    
    73   29   70 1    
    74   30   71 1    
    75   30   72 1    
    76   30   73 1    
    77   31   34 1    
    78   31   74 1    
    79   31   75 1    
    80   32   76 1    
    81   32   77 1    
    82   32   78 1    
    83   33   79 1    
    84   34   80 1    
@<TRIPOS>SUBSTRUCTURE
     1 ****        1 TEMP              0 ****  ****    0 ROOT 
@<TRIPOS>NORMAL
@<TRIPOS>FF_PBC
FORCE_FIELD_SETUP_FEATURE Force Field Setup information
v1.0  0 0.000000 0.000000 0.000000 0.000000 0.000000 0.000000 NONE 0 0 0 0 1 0 0 0 0 0 0 0 0
