@<TRIPOS>MOLECULE
MOL002243
   51    54     1     1     0
SMALL
GASTEIGER


@<TRIPOS>ATOM
      1 C           1.775902   -4.950061    2.948804 C.ar      1 <1>         0.075732 
      2 C           1.547094   -3.775554    3.826381 C.ar      1 <1>        -0.001429 
      3 C           1.404861   -2.539605    3.298220 C.ar      1 <1>         0.086509 
      4 C           1.479999   -2.352037    1.822412 C.ar      1 <1>         0.062970 
      5 C           1.687731   -3.434387    1.009988 C.ar      1 <1>         0.037988 
      6 C           1.838779   -4.782098    1.614208 C.ar      1 <1>        -0.020262 
      7 C           1.325762   -0.968774    1.233786 C.2       1 <1>         0.199449 
      8 C           1.400656   -0.752949   -0.260879 C.ar      1 <1>         0.063194 
      9 C           1.624015   -1.922207   -1.138145 C.ar      1 <1>         0.035818 
     10 C           1.768474   -3.283218   -0.493466 C.2       1 <1>         0.194755 
     11 C           1.262385    0.499015   -0.814490 C.ar      1 <1>         0.091201 
     12 C           1.344671    0.676041   -2.283050 C.ar      1 <1>        -0.027912 
     13 C           1.547223   -0.399286   -3.089218 C.ar      1 <1>        -0.047298 
     14 C           1.692112   -1.752154   -2.490396 C.ar      1 <1>        -0.047151 
     15 O           1.952631   -4.267526   -1.190081 O.2       1 <1>        -0.286608 
     16 O           1.134932   -0.035295    1.997420 O.2       1 <1>        -0.286435 
     17 C           1.626393   -0.213963   -4.608552 C.3       1 <1>        -0.039609 
     18 O           1.188953   -1.461694    4.161920 O.3       1 <1>        -0.359020 
     19 O           1.042790    1.592504    0.015111 O.3       1 <1>        -0.311813 
     20 C          -0.313940    2.037223    0.172725 C.3       1 <1>         0.193669 
     21 O          -0.608669    3.018743   -0.838032 O.3       1 <1>        -0.340168 
     22 C          -1.859037    3.714769   -0.619569 C.3       1 <1>         0.113017 
     23 C          -3.056216    2.720668   -0.606517 C.3       1 <1>         0.111896 
     24 C          -2.795552    1.535802    0.366050 C.3       1 <1>         0.114074 
     25 C          -1.391955    0.914295    0.131674 C.3       1 <1>         0.134509 
     26 C          -1.815504    4.658195    0.618355 C.3       1 <1>         0.073015 
     27 O          -2.828616    5.676090    0.502130 O.3       1 <1>        -0.392366 
     28 O          -3.820395    0.530488    0.247614 O.3       1 <1>        -0.386401 
     29 O          -4.269265    3.403428   -0.239491 O.3       1 <1>        -0.386488 
     30 O          -1.371562    0.170046   -1.105085 O.3       1 <1>        -0.384091 
     31 O           1.926429   -6.230025    3.485245 O.3       1 <1>        -0.359729 
     32 H           1.491235   -3.898086    4.902169 H         1 <1>         0.066922 
     33 H           2.003394   -5.648482    0.980509 H         1 <1>         0.065049 
     34 H           1.237621    1.670814   -2.702068 H         1 <1>         0.064614 
     35 H           1.852951   -2.609684   -3.135345 H         1 <1>         0.062744 
     36 H           1.969496   -1.132580   -5.107757 H         1 <1>         0.027755 
     37 H           0.628842    0.046209   -4.993040 H         1 <1>         0.027755 
     38 H           2.329265    0.597408   -4.851975 H         1 <1>         0.027755 
     39 H           1.116149   -0.621475    3.719113 H         1 <1>         0.217341 
     40 H          -0.286362    2.501570    1.169938 H         1 <1>         0.094160 
     41 H          -1.979567    4.382632   -1.488855 H         1 <1>         0.064668 
     42 H          -3.172589    2.322686   -1.629553 H         1 <1>         0.064673 
     43 H          -2.861720    1.911167    1.399565 H         1 <1>         0.064758 
     44 H          -1.208543    0.184757    0.935488 H         1 <1>         0.067108 
     45 H          -1.966058    4.106566    1.558974 H         1 <1>         0.058370 
     46 H          -0.822456    5.139754    0.647090 H         1 <1>         0.058370 
     47 H          -2.842096    6.286332    1.234342 H         1 <1>         0.209508 
     48 H          -3.803143    0.094828   -0.599582 H         1 <1>         0.210005 
     49 H          -5.024728    2.822953   -0.215750 H         1 <1>         0.210004 
     50 H          -1.417733    0.727583   -1.874712 H         1 <1>         0.210111 
     51 H           1.974362   -6.244825    4.434376 H         1 <1>         0.217315 
@<TRIPOS>BOND
     1    1    2 1    
     2    1    6 2    
     3    1   31 1    
     4    2    3 2    
     5    2   32 1    
     6    3    4 1    
     7    3   18 1    
     8    4    5 2    
     9    4    7 1    
    10    5    6 1    
    11    5   10 1    
    12    6   33 1    
    13    7    8 1    
    14    7   16 2    
    15    8    9 1    
    16    8   11 2    
    17    9   10 1    
    18    9   14 2    
    19   10   15 2    
    20   11   12 1    
    21   11   19 1    
    22   12   13 2    
    23   12   34 1    
    24   13   14 1    
    25   13   17 1    
    26   14   35 1    
    27   17   36 1    
    28   17   37 1    
    29   17   38 1    
    30   18   39 1    
    31   19   20 1    
    32   20   21 1    
    33   20   25 1    
    34   20   40 1    
    35   21   22 1    
    36   22   23 1    
    37   22   26 1    
    38   22   41 1    
    39   23   24 1    
    40   23   29 1    
    41   23   42 1    
    42   24   25 1    
    43   24   28 1    
    44   24   43 1    
    45   25   30 1    
    46   25   44 1    
    47   26   27 1    
    48   26   45 1    
    49   26   46 1    
    50   27   47 1    
    51   28   48 1    
    52   29   49 1    
    53   30   50 1    
    54   31   51 1    
@<TRIPOS>SUBSTRUCTURE
     1 ****        1 TEMP              0 ****  ****    0 ROOT 
@<TRIPOS>NORMAL
@<TRIPOS>FF_PBC
FORCE_FIELD_SETUP_FEATURE Force Field Setup information
v1.0  0 0.000000 0.000000 0.000000 0.000000 0.000000 0.000000 NONE 0 0 0 0 1 0 0 0 0 0 0 0 0
