@<TRIPOS>MOLECULE
MOL005010
   53    56     1     1     0
SMALL
GASTEIGER


@<TRIPOS>ATOM
      1 O           6.405170   -0.706171    0.499979 O.3       1 <1>        -0.334208 
      2 O           0.024318    0.336409   -0.253826 O.3       1 <1>        -0.307796 
      3 O          -3.916645    3.239201   -0.340889 O.3       1 <1>        -0.359468 
      4 O          -2.089868   -2.995193   -0.989265 O.2       1 <1>        -0.287105 
      5 C           7.203725    0.443248    0.155388 C.3       1 <1>         0.088835 
      6 C           4.344373    0.372014   -0.220466 C.ar      1 <1>         0.005432 
      7 C           5.025086   -0.732755    0.297557 C.ar      1 <1>         0.084433 
      8 C           6.442164    1.629500   -0.393902 C.2       1 <1>        -0.051997 
      9 C           7.926290    0.878441    1.455149 C.3       1 <1>        -0.031936 
     10 C           8.223928   -0.029235   -0.910488 C.3       1 <1>        -0.031936 
     11 C           5.119884    1.615790   -0.575029 C.2       1 <1>        -0.053358 
     12 C           2.152713   -0.841713   -0.092957 C.ar      1 <1>         0.006308 
     13 C           2.875617    0.317071   -0.417507 C.ar      1 <1>        -0.042493 
     14 C           4.267435   -1.956648    0.644992 C.ar      1 <1>        -0.030424 
     15 C           0.653816   -0.850366   -0.313901 C.2       1 <1>         0.093880 
     16 C           2.881847   -2.011035    0.462413 C.ar      1 <1>        -0.049637 
     17 C          -2.163056   -0.634670   -0.665557 C.ar      1 <1>         0.052600 
     18 C          -1.358772    0.471852   -0.413170 C.ar      1 <1>         0.096332 
     19 C          -4.222354    0.782561   -0.733481 C.ar      1 <1>        -0.013101 
     20 C          -3.627949   -0.485835   -0.831025 C.ar      1 <1>        -0.042511 
     21 C          -0.018017   -1.983378   -0.563549 C.2       1 <1>         0.016832 
     22 C          -1.470668   -1.968944   -0.759680 C.2       1 <1>         0.191037 
     23 C          -5.738494    0.925574   -0.920008 C.3       1 <1>        -0.006789 
     24 C          -3.363343    1.965795   -0.455958 C.ar      1 <1>         0.078535 
     25 C          -1.981146    1.810355   -0.309437 C.ar      1 <1>        -0.000420 
     26 C          -6.409996    0.700377    0.415315 C.2       1 <1>        -0.080898 
     27 C          -7.245110   -0.306611    0.721360 C.2       1 <1>        -0.079307 
     28 C          -7.879060   -0.412762    2.092559 C.3       1 <1>        -0.044040 
     29 C          -7.619667   -1.396069   -0.258994 C.3       1 <1>        -0.044040 
     30 H           7.000040    2.530562   -0.652212 H         1 <1>         0.060052 
     31 H           7.180527    1.199039    2.198957 H         1 <1>         0.026052 
     32 H           8.496345    0.035052    1.873978 H         1 <1>         0.026052 
     33 H           8.618210    1.712643    1.262938 H         1 <1>         0.026052 
     34 H           8.921973    0.779769   -1.174925 H         1 <1>         0.026052 
     35 H           8.801955   -0.884988   -0.529234 H         1 <1>         0.026052 
     36 H           7.686746   -0.346878   -1.817396 H         1 <1>         0.026052 
     37 H           4.598882    2.487255   -0.974004 H         1 <1>         0.062202 
     38 H           2.361344    1.183692   -0.819338 H         1 <1>         0.063091 
     39 H           4.801365   -2.810715    1.047335 H         1 <1>         0.064366 
     40 H           2.353470   -2.915359    0.741708 H         1 <1>         0.062504 
     41 H          -4.231480   -1.364499   -1.029125 H         1 <1>         0.062902 
     42 H           0.472560   -2.951202   -0.640166 H         1 <1>         0.068218 
     43 H          -5.981162    1.937662   -1.276829 H         1 <1>         0.035640 
     44 H          -6.074337    0.233322   -1.704688 H         1 <1>         0.035640 
     45 H          -1.358337    2.676120   -0.115029 H         1 <1>         0.066954 
     46 H          -6.178938    1.440150    1.182332 H         1 <1>         0.057472 
     47 H          -4.607842    3.261757    0.310164 H         1 <1>         0.217326 
     48 H          -7.627923    0.431228    2.752887 H         1 <1>         0.027427 
     49 H          -8.974084   -0.445418    1.985927 H         1 <1>         0.027427 
     50 H          -7.542293   -1.340014    2.580249 H         1 <1>         0.027427 
     51 H          -6.725349   -1.830256   -0.727957 H         1 <1>         0.027427 
     52 H          -8.158122   -2.217918    0.236937 H         1 <1>         0.027427 
     53 H          -8.274471   -0.978008   -1.038031 H         1 <1>         0.027427 
@<TRIPOS>BOND
     1    1    5 1    
     2    7    1 1    
     3    2   15 1    
     4   18    2 1    
     5   24    3 1    
     6    3   47 1    
     7   22    4 2    
     8    8    5 1    
     9    5    9 1    
    10    5   10 1    
    11    6    7 2    
    12    6   11 1    
    13   13    6 1    
    14   14    7 1    
    15   11    8 2    
    16    8   30 1    
    17    9   31 1    
    18    9   32 1    
    19    9   33 1    
    20   10   34 1    
    21   10   35 1    
    22   10   36 1    
    23   11   37 1    
    24   12   13 2    
    25   15   12 1    
    26   12   16 1    
    27   13   38 1    
    28   16   14 2    
    29   14   39 1    
    30   15   21 2    
    31   16   40 1    
    32   17   18 2    
    33   20   17 1    
    34   17   22 1    
    35   18   25 1    
    36   19   20 2    
    37   19   23 1    
    38   19   24 1    
    39   20   41 1    
    40   21   22 1    
    41   21   42 1    
    42   23   26 1    
    43   23   43 1    
    44   23   44 1    
    45   24   25 2    
    46   25   45 1    
    47   26   27 2    
    48   26   46 1    
    49   27   28 1    
    50   27   29 1    
    51   28   48 1    
    52   28   49 1    
    53   28   50 1    
    54   29   51 1    
    55   29   52 1    
    56   29   53 1    
@<TRIPOS>SUBSTRUCTURE
     1 ****        1 TEMP              0 ****  ****    0 ROOT 
@<TRIPOS>NORMAL
@<TRIPOS>FF_PBC
FORCE_FIELD_SETUP_FEATURE Force Field Setup information
v1.0  0 0.000000 0.000000 0.000000 0.000000 0.000000 0.000000 NONE 0 0 0 0 1 0 0 0 0 0 0 0 0
