@<TRIPOS>MOLECULE
MOL005926
   31    30     1     1     0
SMALL
GASTEIGER


@<TRIPOS>ATOM
      1 C           0.698405   -1.247877   -0.000272 C.2       1 <1>        -0.074085 
      2 C          -0.541649   -0.368837   -0.000388 C.3       1 <1>        -0.028491 
      3 C           0.543308   -2.582584    0.000031 C.2       1 <1>        -0.059112 
      4 C           2.051288   -0.563711   -0.000559 C.3       1 <1>        -0.043707 
      5 C          -0.342084    1.173067    0.000184 C.3       1 <1>        -0.030847 
      6 C           1.663549   -3.592031    0.000100 C.3       1 <1>         0.075238 
      7 C          -1.658172    1.916968   -0.000058 C.2       1 <1>        -0.084989 
      8 O           1.090010   -4.915532    0.000185 O.3       1 <1>        -0.313500 
      9 C          -1.780555    3.254138    0.000165 C.2       1 <1>        -0.079608 
     10 C           1.998012   -5.901813    0.000193 C.2       1 <1>         0.249409 
     11 C          -3.157874    3.879287   -0.000088 C.3       1 <1>        -0.044049 
     12 C          -0.614588    4.219615    0.000727 C.3       1 <1>        -0.044049 
     13 O           1.606079   -7.056551    0.000256 O.2       1 <1>        -0.268716 
     14 H          -1.133268   -0.631602   -0.892833 H         1 <1>         0.031286 
     15 H          -1.133930   -0.632147    0.891462 H         1 <1>         0.031286 
     16 H          -0.469538   -2.989006    0.000226 H         1 <1>         0.059434 
     17 H           2.898077   -1.262362   -0.000383 H         1 <1>         0.027437 
     18 H           2.154057    0.064157   -0.897046 H         1 <1>         0.027437 
     19 H           2.154202    0.064733    0.895507 H         1 <1>         0.027437 
     20 H           0.216809    1.469627    0.901005 H         1 <1>         0.031044 
     21 H           0.217488    1.470247   -0.900008 H         1 <1>         0.031044 
     22 H           2.277387   -3.445537    0.904262 H         1 <1>         0.061007 
     23 H           2.277361   -3.445676   -0.904103 H         1 <1>         0.061007 
     24 H          -2.576019    1.326906   -0.000404 H         1 <1>         0.057155 
     25 H           3.078407   -5.746352    0.000144 H         1 <1>         0.136373 
     26 H          -3.115298    4.979217   -0.002321 H         1 <1>         0.027427 
     27 H          -3.709438    3.557597    0.896358 H         1 <1>         0.027427 
     28 H          -3.710982    3.554114   -0.894330 H         1 <1>         0.027427 
     29 H           0.371308    3.735849    0.001310 H         1 <1>         0.027427 
     30 H          -0.676673    4.858072    0.894798 H         1 <1>         0.027427 
     31 H          -0.675680    4.857923   -0.893520 H         1 <1>         0.027427 
@<TRIPOS>BOND
     1    1    2 1    
     2    1    3 2    
     3    1    4 1    
     4    2    5 1    
     5    2   14 1    
     6    2   15 1    
     7    3    6 1    
     8    3   16 1    
     9    4   17 1    
    10    4   18 1    
    11    4   19 1    
    12    5    7 1    
    13    5   20 1    
    14    5   21 1    
    15    6    8 1    
    16    6   22 1    
    17    6   23 1    
    18    7    9 2    
    19    7   24 1    
    20    8   10 1    
    21    9   11 1    
    22    9   12 1    
    23   10   13 2    
    24   10   25 1    
    25   11   26 1    
    26   11   27 1    
    27   11   28 1    
    28   12   29 1    
    29   12   30 1    
    30   12   31 1    
@<TRIPOS>SUBSTRUCTURE
     1 ****        1 TEMP              0 ****  ****    0 ROOT 
@<TRIPOS>NORMAL
@<TRIPOS>FF_PBC
FORCE_FIELD_SETUP_FEATURE Force Field Setup information
v1.0  0 0.000000 0.000000 0.000000 0.000000 0.000000 0.000000 NONE 0 0 0 0 1 0 0 0 0 0 0 0 0
