@<TRIPOS>MOLECULE
MOL000034
   42    42     1     1     0
SMALL
GASTEIGER


@<TRIPOS>ATOM
      1 C          -4.065087   -0.783064   -0.013898 C.3       1 <1>        -0.036079 
      2 C          -2.669732   -1.188826   -0.576740 C.3       1 <1>         0.063348 
      3 C          -2.510929   -2.725551   -0.373932 C.3       1 <1>        -0.036079 
      4 O          -2.735817   -0.918816   -1.988328 O.3       1 <1>        -0.388845 
      5 C          -1.521930   -0.360684    0.112999 C.3       1 <1>        -0.012054 
      6 C          -0.100012   -0.973314   -0.064755 C.3       1 <1>        -0.040315 
      7 C           0.999974   -0.125563    0.641960 C.3       1 <1>        -0.011259 
      8 C           1.040414    1.368100    0.169814 C.3       1 <1>        -0.007828 
      9 C          -0.396811    1.952529    0.329564 C.3       1 <1>        -0.043296 
     10 C          -1.483891    1.112383   -0.392700 C.3       1 <1>        -0.046812 
     11 C           3.030555   -1.032892    1.812001 C.2       1 <1>        -0.099420 
     12 C           2.345886   -0.844883    0.672900 C.2       1 <1>        -0.075793 
     13 C           2.924123   -1.388918   -0.616524 C.3       1 <1>        -0.043750 
     14 C           1.562568    1.537850   -1.288422 C.3       1 <1>        -0.055559 
     15 C           1.971763    2.163605    1.073256 C.2       1 <1>        -0.084621 
     16 C           2.165972    3.487113    0.983623 C.2       1 <1>        -0.102094 
     17 H          -4.296631    0.272582   -0.205668 H         1 <1>         0.025721 
     18 H          -4.115795   -0.962521    1.070915 H         1 <1>         0.025721 
     19 H          -4.858213   -1.373955   -0.497011 H         1 <1>         0.025721 
     20 H          -1.629355   -3.114690   -0.903715 H         1 <1>         0.025721 
     21 H          -2.422451   -2.964726    0.696841 H         1 <1>         0.025721 
     22 H          -3.383439   -3.260177   -0.779165 H         1 <1>         0.025721 
     23 H          -1.949794   -1.168936   -2.460448 H         1 <1>         0.210147 
     24 H          -1.729595   -0.349781    1.196148 H         1 <1>         0.032842 
     25 H          -0.055190   -1.971128    0.399953 H         1 <1>         0.027478 
     26 H           0.099715   -1.092678   -1.136255 H         1 <1>         0.027478 
     27 H           0.661413   -0.076616    1.691375 H         1 <1>         0.035381 
     28 H          -0.442505    2.981611   -0.060929 H         1 <1>         0.027376 
     29 H          -0.650796    1.999004    1.401845 H         1 <1>         0.027376 
     30 H          -2.446699    1.612354   -0.210397 H         1 <1>         0.026909 
     31 H          -1.303591    1.135220   -1.477717 H         1 <1>         0.026909 
     32 H           2.673274   -0.684568    2.780315 H         1 <1>         0.053441 
     33 H           3.986476   -1.555772    1.806114 H         1 <1>         0.053441 
     34 H           2.382797   -1.101824   -1.525215 H         1 <1>         0.027437 
     35 H           2.922996   -2.487813   -0.560355 H         1 <1>         0.027437 
     36 H           3.964756   -1.047180   -0.725557 H         1 <1>         0.027437 
     37 H           1.447528    2.576784   -1.630319 H         1 <1>         0.023821 
     38 H           2.634559    1.296199   -1.335122 H         1 <1>         0.023821 
     39 H           1.028305    0.902374   -2.006116 H         1 <1>         0.023821 
     40 H           2.532848    1.651532    1.854107 H         1 <1>         0.057195 
     41 H           2.850729    3.990617    1.666778 H         1 <1>         0.053192 
     42 H           1.666306    4.111958    0.246176 H         1 <1>         0.053192 
@<TRIPOS>BOND
     1    1    2 1    
     2    1   17 1    
     3    1   18 1    
     4    1   19 1    
     5    2    3 1    
     6    2    4 1    
     7    2    5 1    
     8    3   20 1    
     9    3   21 1    
    10    3   22 1    
    11    4   23 1    
    12    5    6 1    
    13    5   10 1    
    14    5   24 1    
    15    6    7 1    
    16    6   25 1    
    17    6   26 1    
    18    7    8 1    
    19    7   12 1    
    20    7   27 1    
    21    8    9 1    
    22    8   14 1    
    23    8   15 1    
    24    9   10 1    
    25    9   28 1    
    26    9   29 1    
    27   10   30 1    
    28   10   31 1    
    29   12   11 2    
    30   11   32 1    
    31   11   33 1    
    32   12   13 1    
    33   13   34 1    
    34   13   35 1    
    35   13   36 1    
    36   14   37 1    
    37   14   38 1    
    38   14   39 1    
    39   15   16 2    
    40   15   40 1    
    41   16   41 1    
    42   16   42 1    
@<TRIPOS>SUBSTRUCTURE
     1 ****        1 TEMP              0 ****  ****    0 ROOT 
@<TRIPOS>NORMAL
@<TRIPOS>FF_PBC
FORCE_FIELD_SETUP_FEATURE Force Field Setup information
v1.0  0 0.000000 0.000000 0.000000 0.000000 0.000000 0.000000 NONE 0 0 0 0 1 0 0 0 0 0 0 0 0
