@<TRIPOS>MOLECULE
MOL002135
   50    52     1     1     0
SMALL
GASTEIGER


@<TRIPOS>ATOM
      1 C          -1.133494    0.525579    0.276029 C.ar      1 <1>         0.017514 
      2 C          -1.185985   -0.950953    0.412993 C.ar      1 <1>         0.014651 
      3 C          -2.191882    1.550552    0.109874 C.ar      1 <1>         0.115960 
      4 C           0.199854    0.931636    0.340032 C.ar      1 <1>        -0.045692 
      5 C          -0.274580   -1.670593   -0.513050 C.ar      1 <1>        -0.048292 
      6 C          -1.910153   -1.651958    1.405523 C.ar      1 <1>         0.080360 
      7 C          -1.755866    2.960625    0.013785 C.ar      1 <1>         0.136263 
      8 O          -3.543098    1.190206    0.066647 O.3       1 <1>        -0.344643 
      9 C           0.685117    2.308838    0.187065 C.ar      1 <1>        -0.014375 
     10 C           0.127994   -2.968633   -0.249692 C.ar      1 <1>        -0.046227 
     11 C          -1.604092   -3.095464    1.585375 C.ar      1 <1>        -0.031082 
     12 O          -2.826116   -0.985772    2.220879 O.3       1 <1>        -0.359225 
     13 C          -0.306655    3.311548    0.053722 C.ar      1 <1>         0.108247 
     14 O          -2.661798    4.028694   -0.121474 O.3       1 <1>        -0.342936 
     15 C          -3.966674    0.281412   -0.959529 C.3       1 <1>         0.043162 
     16 C           2.218276    2.535993    0.184738 C.3       1 <1>        -0.025133 
     17 C          -0.569030   -3.714353    0.830469 C.ar      1 <1>        -0.056095 
     18 C           1.244309   -3.613685   -1.085116 C.3       1 <1>        -0.020987 
     19 O           0.073270    4.649019   -0.045661 O.3       1 <1>        -0.356978 
     20 C          -4.081565    3.839039   -0.096672 C.3       1 <1>         0.043243 
     21 C           3.092881    1.386194    0.817291 C.3       1 <1>        -0.048595 
     22 C           2.483600   -2.726552   -1.452260 C.3       1 <1>         0.009797 
     23 C           3.442408    0.197607   -0.160384 C.3       1 <1>        -0.046079 
     24 C           3.524921   -2.429969   -0.389398 C.2       1 <1>         0.133680 
     25 C           3.409398   -1.211155    0.514169 C.3       1 <1>         0.005841 
     26 O           4.472050   -3.185496   -0.260046 O.2       1 <1>        -0.297400 
     27 H           0.931774    0.175524    0.520509 H         1 <1>         0.062796 
     28 H           0.103619   -1.148774   -1.386798 H         1 <1>         0.062714 
     29 H          -2.151425   -3.676520    2.316201 H         1 <1>         0.064347 
     30 H          -3.115798   -1.513016    2.955777 H         1 <1>         0.217338 
     31 H          -5.053609    0.145351   -0.853546 H         1 <1>         0.052871 
     32 H          -3.484975   -0.699974   -0.861040 H         1 <1>         0.052871 
     33 H          -3.760119    0.692732   -1.958699 H         1 <1>         0.052871 
     34 H           2.397944    3.467689    0.742250 H         1 <1>         0.031399 
     35 H           2.540348    2.694986   -0.856660 H         1 <1>         0.031399 
     36 H          -0.304486   -4.748725    1.026981 H         1 <1>         0.062108 
     37 H           0.739190   -3.908316   -2.018590 H         1 <1>         0.031720 
     38 H           1.600055   -4.525987   -0.582165 H         1 <1>         0.031720 
     39 H          -0.694302    5.202805   -0.176379 H         1 <1>         0.217433 
     40 H          -4.550494    4.829042   -0.175484 H         1 <1>         0.052872 
     41 H          -4.408469    3.233985   -0.952757 H         1 <1>         0.052872 
     42 H          -4.401475    3.377679    0.847929 H         1 <1>         0.052872 
     43 H           4.047684    1.809708    1.169860 H         1 <1>         0.026851 
     44 H           2.599445    1.036366    1.738731 H         1 <1>         0.026851 
     45 H           3.035475   -3.317983   -2.199696 H         1 <1>         0.034470 
     46 H           2.193161   -1.808014   -1.972199 H         1 <1>         0.034470 
     47 H           2.748468    0.210440   -1.010131 H         1 <1>         0.026936 
     48 H           4.454088    0.348347   -0.578284 H         1 <1>         0.026936 
     49 H           4.252168   -1.238518    1.223600 H         1 <1>         0.034153 
     50 H           2.493778   -1.362736    1.095139 H         1 <1>         0.034153 
@<TRIPOS>BOND
     1    1    2 1    
     2    1    3 1    
     3    1    4 2    
     4    2    5 1    
     5    2    6 2    
     6    3    7 2    
     7    3    8 1    
     8    4    9 1    
     9    4   27 1    
    10    5   10 2    
    11    5   28 1    
    12    6   11 1    
    13    6   12 1    
    14    7   13 1    
    15    7   14 1    
    16    8   15 1    
    17    9   13 2    
    18    9   16 1    
    19   10   17 1    
    20   10   18 1    
    21   11   17 2    
    22   11   29 1    
    23   12   30 1    
    24   13   19 1    
    25   14   20 1    
    26   15   31 1    
    27   15   32 1    
    28   15   33 1    
    29   16   21 1    
    30   16   34 1    
    31   16   35 1    
    32   17   36 1    
    33   18   22 1    
    34   18   37 1    
    35   18   38 1    
    36   19   39 1    
    37   20   40 1    
    38   20   41 1    
    39   20   42 1    
    40   21   23 1    
    41   21   43 1    
    42   21   44 1    
    43   22   24 1    
    44   22   45 1    
    45   22   46 1    
    46   23   25 1    
    47   23   47 1    
    48   23   48 1    
    49   24   25 1    
    50   24   26 2    
    51   25   49 1    
    52   25   50 1    
@<TRIPOS>SUBSTRUCTURE
     1 ****        1 TEMP              0 ****  ****    0 ROOT 
@<TRIPOS>NORMAL
@<TRIPOS>FF_PBC
FORCE_FIELD_SETUP_FEATURE Force Field Setup information
v1.0  0 0.000000 0.000000 0.000000 0.000000 0.000000 0.000000 NONE 0 0 0 0 1 0 0 0 0 0 0 0 0
