@<TRIPOS>MOLECULE
MOL004964
   30    31     1     1     0
SMALL
GASTEIGER


@<TRIPOS>ATOM
      1 C           2.531273    0.618694   -0.579417 C.ar      1 <1>         0.075057 
      2 C           2.762872   -0.386366    0.483907 C.ar      1 <1>        -0.031105 
      3 C           1.877705   -1.455329    0.652466 C.ar      1 <1>        -0.046025 
      4 C           0.687104   -1.578010   -0.222408 C.ar      1 <1>         0.051478 
      5 C           0.478939   -0.656732   -1.257980 C.ar      1 <1>         0.085798 
      6 C           1.425874    0.474954   -1.434398 C.ar      1 <1>        -0.001470 
      7 C          -0.300289   -2.693639    0.030748 C.2       1 <1>         0.188543 
      8 C          -1.759258   -2.510029   -0.086846 C.2       1 <1>        -0.013708 
      9 C          -2.463432   -1.373283    0.018436 C.2       1 <1>        -0.050958 
     10 C          -1.886852   -0.010207    0.340676 C.ar      1 <1>        -0.024915 
     11 C          -2.410982    1.159751   -0.404125 C.ar      1 <1>        -0.054591 
     12 C          -1.885820    2.436705   -0.183108 C.ar      1 <1>        -0.061202 
     13 C          -0.793466    2.623659    0.800628 C.ar      1 <1>        -0.061723 
     14 C          -0.316081    1.529923    1.532012 C.ar      1 <1>        -0.061202 
     15 C          -0.893278    0.181481    1.312519 C.ar      1 <1>        -0.054591 
     16 O           0.120525   -3.794258    0.353773 O.2       1 <1>        -0.287193 
     17 O           3.422446    1.688877   -0.710978 O.3       1 <1>        -0.359749 
     18 O          -0.619341   -0.808252   -2.108955 O.3       1 <1>        -0.359040 
     19 H           3.628497   -0.285584    1.129250 H         1 <1>         0.064341 
     20 H           2.055367   -2.195155    1.426627 H         1 <1>         0.062620 
     21 H           1.253628    1.193394   -2.226527 H         1 <1>         0.066921 
     22 H          -2.313250   -3.427691   -0.286255 H         1 <1>         0.065602 
     23 H          -3.540734   -1.394264   -0.147003 H         1 <1>         0.062459 
     24 H          -3.210478    1.023390   -1.122916 H         1 <1>         0.062344 
     25 H          -2.278754    3.288762   -0.727232 H         1 <1>         0.061776 
     26 H          -0.364919    3.610170    0.949746 H         1 <1>         0.061759 
     27 H           0.482237    1.665875    2.256958 H         1 <1>         0.061776 
     28 H          -0.538523   -0.651174    1.910070 H         1 <1>         0.062344 
     29 H           3.180002    2.326627   -1.372598 H         1 <1>         0.217315 
     30 H          -0.829031   -0.018780   -2.595205 H         1 <1>         0.217341 
@<TRIPOS>BOND
     1    1    2 1    
     2    1    6 2    
     3    1   17 1    
     4    2    3 2    
     5    2   19 1    
     6    3    4 1    
     7    3   20 1    
     8    4    5 2    
     9    4    7 1    
    10    5    6 1    
    11    5   18 1    
    12    6   21 1    
    13    7    8 1    
    14    7   16 2    
    15    8    9 2    
    16    8   22 1    
    17    9   10 1    
    18    9   23 1    
    19   10   11 1    
    20   10   15 2    
    21   11   12 2    
    22   11   24 1    
    23   12   13 1    
    24   12   25 1    
    25   13   14 2    
    26   13   26 1    
    27   14   15 1    
    28   14   27 1    
    29   15   28 1    
    30   17   29 1    
    31   18   30 1    
@<TRIPOS>SUBSTRUCTURE
     1 ****        1 TEMP              0 ****  ****    0 ROOT 
@<TRIPOS>NORMAL
@<TRIPOS>FF_PBC
FORCE_FIELD_SETUP_FEATURE Force Field Setup information
v1.0  0 0.000000 0.000000 0.000000 0.000000 0.000000 0.000000 NONE 0 0 0 0 1 0 0 0 0 0 0 0 0
