@<TRIPOS>MOLECULE
MOL008151
   62    61     1     1     0
SMALL
GASTEIGER


@<TRIPOS>ATOM
      1 C          -6.204703   -0.363042    0.341496 C.3       1 <1>        -0.053045 
      2 C          -4.813353    0.327149    0.388301 C.3       1 <1>        -0.053057 
      3 C          -7.392704    0.642164    0.347576 C.3       1 <1>        -0.052596 
      4 C          -3.664382   -0.712265    0.511518 C.3       1 <1>        -0.053057 
      5 C          -7.417052    1.577311   -0.893797 C.3       1 <1>        -0.044055 
      6 C          -2.277718   -0.011682    0.518489 C.3       1 <1>        -0.053057 
      7 C          -8.708675    2.438409   -0.927781 C.3       1 <1>         0.033189 
      8 C          -1.112885   -1.035269    0.611704 C.3       1 <1>        -0.053057 
      9 C          -8.744132    3.388923   -2.096091 C.2       1 <1>         0.261905 
     10 C           0.261937   -0.312190    0.596095 C.3       1 <1>        -0.053057 
     11 O          -9.823910    4.183973   -2.135803 O.3       1 <1>        -0.318522 
     12 O          -7.854321    3.421787   -2.932136 O.2       1 <1>        -0.264985 
     13 C           1.446085   -1.316423    0.650405 C.3       1 <1>        -0.053057 
     14 C          -9.840797    5.087877   -3.257692 C.3       1 <1>         0.045865 
     15 C           2.807635   -0.568828    0.611040 C.3       1 <1>        -0.053057 
     16 C           4.009317   -1.552677    0.638139 C.3       1 <1>        -0.053057 
     17 C           5.360600   -0.786756    0.589339 C.3       1 <1>        -0.053057 
     18 C           6.570126   -1.761123    0.596949 C.3       1 <1>        -0.053057 
     19 C           7.917700   -0.989755    0.538220 C.3       1 <1>        -0.053065 
     20 C           9.128007   -1.963180    0.530576 C.3       1 <1>        -0.053306 
     21 C          10.474345   -1.191636    0.469773 C.3       1 <1>        -0.055911 
     22 C          11.680537   -2.166119    0.459095 C.3       1 <1>        -0.065276 
     23 H          -6.268437   -0.999020   -0.557040 H         1 <1>         0.026529 
     24 H          -6.304193   -1.014945    1.226127 H         1 <1>         0.026529 
     25 H          -4.776283    1.017321    1.247245 H         1 <1>         0.026528 
     26 H          -4.653300    0.907093   -0.533948 H         1 <1>         0.026528 
     27 H          -8.329050    0.059281    0.367254 H         1 <1>         0.026540 
     28 H          -7.354968    1.252013    1.265468 H         1 <1>         0.026540 
     29 H          -3.714954   -1.412516   -0.338773 H         1 <1>         0.026528 
     30 H          -3.785885   -1.290104    1.442717 H         1 <1>         0.026528 
     31 H          -6.553993    2.261389   -0.870628 H         1 <1>         0.027004 
     32 H          -7.361107    0.972875   -1.814153 H         1 <1>         0.027004 
     33 H          -2.224813    0.679560    1.375694 H         1 <1>         0.026528 
     34 H          -2.164895    0.577432   -0.406846 H         1 <1>         0.026528 
     35 H          -9.592275    1.785165   -0.995246 H         1 <1>         0.036606 
     36 H          -8.783557    3.030949   -0.002807 H         1 <1>         0.036606 
     37 H          -1.169194   -1.729918   -0.242501 H         1 <1>         0.026528 
     38 H          -1.210035   -1.621199    1.540531 H         1 <1>         0.026528 
     39 H           0.323263    0.370190    1.459786 H         1 <1>         0.026528 
     40 H           0.342487    0.289146   -0.324489 H         1 <1>         0.026528 
     41 H           1.381881   -2.002953   -0.209795 H         1 <1>         0.026528 
     42 H           1.380190   -1.913614    1.574747 H         1 <1>         0.026528 
     43 H         -10.759058    5.689268   -3.191504 H         1 <1>         0.052962 
     44 H          -9.852587    4.540127   -4.213319 H         1 <1>         0.052962 
     45 H          -8.976669    5.770765   -3.236053 H         1 <1>         0.052962 
     46 H           2.874385    0.110163    1.476953 H         1 <1>         0.026528 
     47 H           2.860379    0.038014   -0.307671 H         1 <1>         0.026528 
     48 H           3.943335   -2.231342   -0.227832 H         1 <1>         0.026528 
     49 H           3.965326   -2.159492    1.557233 H         1 <1>         0.026528 
     50 H           5.430189   -0.113804    1.459759 H         1 <1>         0.026528 
     51 H           5.397462   -0.172313   -0.325346 H         1 <1>         0.026528 
     52 H           6.498789   -2.435692   -0.272090 H         1 <1>         0.026528 
     53 H           6.539286   -2.373545    1.513097 H         1 <1>         0.026528 
     54 H           7.993987   -0.320408    1.410993 H         1 <1>         0.026528 
     55 H           7.945031   -0.371589   -0.374216 H         1 <1>         0.026528 
     56 H           9.053674   -2.631578   -0.343301 H         1 <1>         0.026520 
     57 H           9.104233   -2.582653    1.442322 H         1 <1>         0.026520 
     58 H          10.557532   -0.524589    1.343810 H         1 <1>         0.026265 
     59 H          10.504596   -0.571245   -0.441338 H         1 <1>         0.026265 
     60 H          12.624906   -1.601182    0.417050 H         1 <1>         0.022978 
     61 H          11.630252   -2.829588   -0.417854 H         1 <1>         0.022978 
     62 H          11.682619   -2.784111    1.370151 H         1 <1>         0.022978 
@<TRIPOS>BOND
     1    1    2 1    
     2    1    3 1    
     3    1   23 1    
     4    1   24 1    
     5    2    4 1    
     6    2   25 1    
     7    2   26 1    
     8    3    5 1    
     9    3   27 1    
    10    3   28 1    
    11    4    6 1    
    12    4   29 1    
    13    4   30 1    
    14    5    7 1    
    15    5   31 1    
    16    5   32 1    
    17    6    8 1    
    18    6   33 1    
    19    6   34 1    
    20    7    9 1    
    21    7   35 1    
    22    7   36 1    
    23    8   10 1    
    24    8   37 1    
    25    8   38 1    
    26    9   11 1    
    27    9   12 2    
    28   10   13 1    
    29   10   39 1    
    30   10   40 1    
    31   11   14 1    
    32   13   15 1    
    33   13   41 1    
    34   13   42 1    
    35   14   43 1    
    36   14   44 1    
    37   14   45 1    
    38   15   16 1    
    39   15   46 1    
    40   15   47 1    
    41   16   17 1    
    42   16   48 1    
    43   16   49 1    
    44   17   18 1    
    45   17   50 1    
    46   17   51 1    
    47   18   19 1    
    48   18   52 1    
    49   18   53 1    
    50   19   20 1    
    51   19   54 1    
    52   19   55 1    
    53   20   21 1    
    54   20   56 1    
    55   20   57 1    
    56   21   22 1    
    57   21   58 1    
    58   21   59 1    
    59   22   60 1    
    60   22   61 1    
    61   22   62 1    
@<TRIPOS>SUBSTRUCTURE
     1 ****        1 TEMP              0 ****  ****    0 ROOT 
@<TRIPOS>NORMAL
@<TRIPOS>FF_PBC
FORCE_FIELD_SETUP_FEATURE Force Field Setup information
v1.0  0 0.000000 0.000000 0.000000 0.000000 0.000000 0.000000 NONE 0 0 0 0 1 0 0 0 0 0 0 0 0
