@<TRIPOS>MOLECULE
MOL000252
   42    41     1     1     0
SMALL
GASTEIGER


@<TRIPOS>ATOM
      1 C          -1.490364   -0.502788   -0.052404 C.2       1 <1>        -0.076231 
      2 C          -0.372127    0.167007   -0.381864 C.2       1 <1>        -0.084718 
      3 C          -1.526685   -2.003329    0.185013 C.3       1 <1>        -0.028563 
      4 C          -2.823199    0.199665    0.108239 C.3       1 <1>        -0.043778 
      5 C          -0.290643    1.652434   -0.660110 C.3       1 <1>        -0.030838 
      6 C          -0.224036   -2.811813   -0.069617 C.3       1 <1>        -0.030848 
      7 C           0.199503    2.397108    0.608838 C.3       1 <1>        -0.028492 
      8 C          -0.414533   -4.295081    0.156317 C.2       1 <1>        -0.084989 
      9 C           0.345572    3.883865    0.343796 C.2       1 <1>        -0.074109 
     10 C           0.537543   -5.224666   -0.031770 C.2       1 <1>        -0.079608 
     11 C           1.549214    4.480368    0.357155 C.2       1 <1>        -0.059953 
     12 C          -0.936794    4.638980    0.064235 C.3       1 <1>        -0.043707 
     13 C           0.260529   -6.692658    0.215667 C.3       1 <1>        -0.044049 
     14 C           1.944384   -4.911197   -0.496464 C.3       1 <1>        -0.044049 
     15 C           1.788233    5.942104    0.071843 C.3       1 <1>         0.062627 
     16 O           3.165677    6.111995   -0.310059 O.3       1 <1>        -0.390994 
     17 H           0.583165   -0.347580   -0.468225 H         1 <1>         0.057163 
     18 H          -1.830848   -2.171159    1.231021 H         1 <1>         0.031285 
     19 H          -2.309479   -2.416609   -0.471982 H         1 <1>         0.031285 
     20 H          -3.525542   -0.402324    0.704696 H         1 <1>         0.027436 
     21 H          -3.267798    0.361601   -0.885047 H         1 <1>         0.027436 
     22 H          -2.718101    1.166839    0.620834 H         1 <1>         0.027436 
     23 H           0.430673    1.823983   -1.476270 H         1 <1>         0.031044 
     24 H          -1.254465    2.055871   -1.002879 H         1 <1>         0.031044 
     25 H           0.092792   -2.651726   -1.112811 H         1 <1>         0.031044 
     26 H           0.559904   -2.460984    0.620551 H         1 <1>         0.031044 
     27 H          -0.513944    2.242836    1.433497 H         1 <1>         0.031286 
     28 H           1.155469    1.947717    0.923190 H         1 <1>         0.031286 
     29 H          -1.398827   -4.618556    0.496786 H         1 <1>         0.057155 
     30 H           2.440827    3.895557    0.585673 H         1 <1>         0.059410 
     31 H          -0.889292    5.679831    0.415737 H         1 <1>         0.027437 
     32 H          -1.129156    4.638404   -1.018963 H         1 <1>         0.027437 
     33 H          -1.791823    4.167166    0.571578 H         1 <1>         0.027437 
     34 H           0.439760   -7.260097   -0.709903 H         1 <1>         0.027427 
     35 H           0.940595   -7.067300    0.995383 H         1 <1>         0.027427 
     36 H          -0.771774   -6.891206    0.541258 H         1 <1>         0.027427 
     37 H           2.148558   -3.841685   -0.638899 H         1 <1>         0.027427 
     38 H           2.663114   -5.291499    0.244785 H         1 <1>         0.027427 
     39 H           2.128451   -5.419984   -1.454508 H         1 <1>         0.027427 
     40 H           1.572068    6.519217    0.986315 H         1 <1>         0.060126 
     41 H           1.137761    6.291430   -0.747285 H         1 <1>         0.060126 
     42 H           3.395936    7.018062   -0.493348 H         1 <1>         0.209823 
@<TRIPOS>BOND
     1    1    2 2    
     2    1    3 1    
     3    1    4 1    
     4    2    5 1    
     5    2   17 1    
     6    3    6 1    
     7    3   18 1    
     8    3   19 1    
     9    4   20 1    
    10    4   21 1    
    11    4   22 1    
    12    5    7 1    
    13    5   23 1    
    14    5   24 1    
    15    6    8 1    
    16    6   25 1    
    17    6   26 1    
    18    7    9 1    
    19    7   27 1    
    20    7   28 1    
    21    8   10 2    
    22    8   29 1    
    23    9   11 2    
    24    9   12 1    
    25   10   13 1    
    26   10   14 1    
    27   11   15 1    
    28   11   30 1    
    29   12   31 1    
    30   12   32 1    
    31   12   33 1    
    32   13   34 1    
    33   13   35 1    
    34   13   36 1    
    35   14   37 1    
    36   14   38 1    
    37   14   39 1    
    38   15   16 1    
    39   15   40 1    
    40   15   41 1    
    41   16   42 1    
@<TRIPOS>SUBSTRUCTURE
     1 ****        1 TEMP              0 ****  ****    0 ROOT 
@<TRIPOS>NORMAL
@<TRIPOS>FF_PBC
FORCE_FIELD_SETUP_FEATURE Force Field Setup information
v1.0  0 0.000000 0.000000 0.000000 0.000000 0.000000 0.000000 NONE 0 0 0 0 1 0 0 0 0 0 0 0 0
