@<TRIPOS>MOLECULE
MOL006937
   55    55     1     1     0
SMALL
GASTEIGER


@<TRIPOS>ATOM
      1 C           9.480140   -0.521462    1.570766 C.2       1 <1>         0.259588 
      2 C           8.338832   -1.479934    1.791058 C.3       1 <1>         0.033006 
      3 C           6.981571   -0.727291    1.798488 C.3       1 <1>        -0.044052 
      4 C           5.794973   -1.700614    2.037076 C.3       1 <1>        -0.052318 
      5 C           4.437302   -0.945989    2.044039 C.3       1 <1>        -0.049603 
      6 C           3.251479   -1.914611    2.295876 C.3       1 <1>        -0.034671 
      7 C           1.948848   -1.148284    2.306826 C.2       1 <1>        -0.085226 
      8 C           0.963848   -1.361772    1.422864 C.2       1 <1>        -0.055997 
      9 C          -0.340226   -0.602935    1.427099 C.3       1 <1>         0.091641 
     10 C          -0.403101    0.236415    0.174154 C.2       1 <1>        -0.053505 
     11 C          -0.509181    1.570854    0.182921 C.2       1 <1>        -0.054380 
     12 C          -0.589064    2.352479   -1.099132 C.3       1 <1>         0.103458 
     13 C          -1.927959    2.353715   -1.959280 C.3       1 <1>         0.089199 
     14 C          -2.979517    1.290155   -1.559406 C.3       1 <1>        -0.023819 
     15 C          -4.349162    1.625081   -2.205502 C.3       1 <1>        -0.050620 
     16 C          -5.427008    0.575180   -1.819895 C.3       1 <1>        -0.052984 
     17 C          -6.800944    0.912993   -2.460581 C.3       1 <1>        -0.053305 
     18 C          -7.879338   -0.134760   -2.071525 C.3       1 <1>        -0.055911 
     19 C          -9.251731    0.205752   -2.708649 C.3       1 <1>        -0.065276 
     20 O          10.327959   -0.318340    2.425974 O.2       1 <1>        -0.265177 
     21 O           9.499106    0.087790    0.383647 O.3       1 <1>        -0.331267 
     22 O          -1.404046   -1.568228    1.398192 O.3       1 <1>        -0.383712 
     23 O          -1.613838    3.309768   -0.985398 O.3       1 <1>        -0.363902 
     24 H           8.482901   -2.002938    2.750002 H         1 <1>         0.036600 
     25 H           8.352868   -2.228539    0.983551 H         1 <1>         0.036600 
     26 H           6.844581   -0.212840    0.832803 H         1 <1>         0.027004 
     27 H           6.999709    0.034284    2.595707 H         1 <1>         0.027004 
     28 H           5.931338   -2.212288    3.004114 H         1 <1>         0.026549 
     29 H           5.784338   -2.463359    1.241056 H         1 <1>         0.026549 
     30 H           4.289066   -0.443562    1.073654 H         1 <1>         0.026822 
     31 H           4.451850   -0.175718    2.832923 H         1 <1>         0.026822 
     32 H           3.371570   -2.407776    3.273868 H         1 <1>         0.030733 
     33 H           3.251369   -2.697648    1.520576 H         1 <1>         0.030733 
     34 H           1.827867   -0.389012    3.080566 H         1 <1>         0.056984 
     35 H           1.081537   -2.117305    0.645728 H         1 <1>         0.059754 
     36 H          -0.432433    0.015482    2.337065 H         1 <1>         0.068225 
     37 H          -0.362587   -0.287774   -0.781057 H         1 <1>         0.059835 
     38 H          -0.544066    2.131194    1.117153 H         1 <1>         0.059615 
     39 H           0.309368    2.863365   -1.477747 H         1 <1>         0.066642 
     40 H          -1.745371    2.602990   -3.016074 H         1 <1>         0.062525 
     41 H          -2.632243    0.306076   -1.910755 H         1 <1>         0.029105 
     42 H          -3.093796    1.255618   -0.464187 H         1 <1>         0.029105 
     43 H          -4.668251    2.624535   -1.866035 H         1 <1>         0.026609 
     44 H          -4.237921    1.651704   -3.302130 H         1 <1>         0.026609 
     45 H          -5.101630   -0.422255   -2.158773 H         1 <1>         0.026529 
     46 H          -5.534424    0.549137   -0.722944 H         1 <1>         0.026529 
     47 H          -7.125304    1.910945   -2.122343 H         1 <1>         0.026520 
     48 H          -6.696347    0.937303   -3.557834 H         1 <1>         0.026520 
     49 H          -7.562309   -1.134803   -2.411659 H         1 <1>         0.026265 
     50 H          -7.988919   -0.162573   -0.974448 H         1 <1>         0.026265 
     51 H         -10.000863   -0.549303   -2.421874 H         1 <1>         0.022978 
     52 H          -9.600297    1.192410   -2.365695 H         1 <1>         0.022978 
     53 H          -9.172500    0.220693   -3.806871 H         1 <1>         0.022978 
     54 H          10.238655    0.680486    0.304132 H         1 <1>         0.220208 
     55 H          -2.266499   -1.164689    1.377524 H         1 <1>         0.210641 
@<TRIPOS>BOND
     1    1    2 1    
     2    1   20 2    
     3    1   21 1    
     4    2    3 1    
     5    2   24 1    
     6    2   25 1    
     7    3    4 1    
     8    3   26 1    
     9    3   27 1    
    10    4    5 1    
    11    4   28 1    
    12    4   29 1    
    13    5    6 1    
    14    5   30 1    
    15    5   31 1    
    16    6    7 1    
    17    6   32 1    
    18    6   33 1    
    19    7    8 2    
    20    7   34 1    
    21    8    9 1    
    22    8   35 1    
    23    9   10 1    
    24    9   22 1    
    25    9   36 1    
    26   10   11 2    
    27   10   37 1    
    28   11   12 1    
    29   11   38 1    
    30   12   13 1    
    31   12   23 1    
    32   12   39 1    
    33   13   14 1    
    34   13   23 1    
    35   13   40 1    
    36   14   15 1    
    37   14   41 1    
    38   14   42 1    
    39   15   16 1    
    40   15   43 1    
    41   15   44 1    
    42   16   17 1    
    43   16   45 1    
    44   16   46 1    
    45   17   18 1    
    46   17   47 1    
    47   17   48 1    
    48   18   19 1    
    49   18   49 1    
    50   18   50 1    
    51   19   51 1    
    52   19   52 1    
    53   19   53 1    
    54   21   54 1    
    55   22   55 1    
@<TRIPOS>SUBSTRUCTURE
     1 ****        1 TEMP              0 ****  ****    0 ROOT 
@<TRIPOS>NORMAL
@<TRIPOS>FF_PBC
FORCE_FIELD_SETUP_FEATURE Force Field Setup information
v1.0  0 0.000000 0.000000 0.000000 0.000000 0.000000 0.000000 NONE 0 0 0 0 1 0 0 0 0 0 0 0 0
