@<TRIPOS>MOLECULE
MOL000122
   29    30     1     1     0
SMALL
GASTEIGER


@<TRIPOS>ATOM
      1 C          -0.953475    0.825946    0.354999 C.3       1 <1>         0.067486 
      2 O          -0.028465    0.134924    1.218395 O.3       1 <1>        -0.367499 
      3 C          -0.143678    1.727869   -0.618981 C.3       1 <1>        -0.023641 
      4 C          -1.770276   -0.227831   -0.445313 C.3       1 <1>        -0.023641 
      5 C          -1.881814    1.678064    1.258811 C.3       1 <1>        -0.035798 
      6 C           0.901777   -0.705421    0.503955 C.3       1 <1>         0.067463 
      7 C           0.771729    0.846871   -1.517681 C.3       1 <1>        -0.045018 
      8 C          -0.816375   -1.062438   -1.348240 C.3       1 <1>        -0.045018 
      9 C           0.644855   -0.627912   -1.039801 C.3       1 <1>        -0.012185 
     10 C           2.332580   -0.221315    0.878982 C.3       1 <1>        -0.035797 
     11 C           0.719513   -2.150884    1.051415 C.3       1 <1>        -0.035797 
     12 H           1.353880   -1.266882   -1.592942 H         1 <1>         0.032834 
     13 H          -0.833099    2.328127   -1.235011 H         1 <1>         0.029291 
     14 H           0.467747    2.422396   -0.020226 H         1 <1>         0.029291 
     15 H          -2.538990    0.276789   -1.053134 H         1 <1>         0.029291 
     16 H          -2.284858   -0.886117    0.273347 H         1 <1>         0.029291 
     17 H          -2.422526    1.027011    1.962375 H         1 <1>         0.025729 
     18 H          -1.284443    2.396041    1.840950 H         1 <1>         0.025729 
     19 H          -2.614426    2.233411    0.653862 H         1 <1>         0.025729 
     20 H           1.817617    1.189763   -1.489459 H         1 <1>         0.026971 
     21 H           0.462769    0.926229   -2.573390 H         1 <1>         0.026971 
     22 H          -0.954845   -2.143733   -1.193343 H         1 <1>         0.026971 
     23 H          -1.043210   -0.884698   -2.412774 H         1 <1>         0.026971 
     24 H           2.456879    0.855078    0.700367 H         1 <1>         0.025729 
     25 H           2.529448   -0.382659    1.949528 H         1 <1>         0.025729 
     26 H           3.087927   -0.771789    0.298149 H         1 <1>         0.025729 
     27 H           1.009576   -2.204583    2.111523 H         1 <1>         0.025729 
     28 H          -0.328532   -2.475027    1.000995 H         1 <1>         0.025729 
     29 H           1.342313   -2.857630    0.482640 H         1 <1>         0.025729 
@<TRIPOS>BOND
     1    1    2 1    
     2    1    3 1    
     3    1    4 1    
     4    1    5 1    
     5    2    6 1    
     6    3    7 1    
     7    3   13 1    
     8    3   14 1    
     9    4    8 1    
    10    4   15 1    
    11    4   16 1    
    12    5   17 1    
    13    5   18 1    
    14    5   19 1    
    15    6    9 1    
    16    6   10 1    
    17    6   11 1    
    18    7    9 1    
    19    7   20 1    
    20    7   21 1    
    21    8    9 1    
    22    8   22 1    
    23    8   23 1    
    24    9   12 1    
    25   10   24 1    
    26   10   25 1    
    27   10   26 1    
    28   11   27 1    
    29   11   28 1    
    30   11   29 1    
@<TRIPOS>SUBSTRUCTURE
     1 ****        1 TEMP              0 ****  ****    0 ROOT 
@<TRIPOS>NORMAL
@<TRIPOS>FF_PBC
FORCE_FIELD_SETUP_FEATURE Force Field Setup information
v1.0  0 0.000000 0.000000 0.000000 0.000000 0.000000 0.000000 NONE 0 0 0 0 1 0 0 0 0 0 0 0 0
