@<TRIPOS>MOLECULE
MOL012982
   99   101     1     1     0
SMALL
GASTEIGER


@<TRIPOS>ATOM
      1 C           3.480344    5.324341    0.857161 C.ar      1 <1>        -0.029191 
      2 C           3.455342    4.176633   -0.085279 C.ar      1 <1>         0.077352 
      3 C           4.172743    3.082452    0.215628 C.ar      1 <1>        -0.022008 
      4 C           4.867590    2.976646    1.524914 C.ar      1 <1>         0.008563 
      5 C           4.905659    4.015674    2.373579 C.ar      1 <1>         0.083127 
      6 C           4.194837    5.265245    2.023681 C.ar      1 <1>        -0.028673 
      7 O           2.692980    4.272525   -1.260321 O.3       1 <1>        -0.339075 
      8 N           3.366584    0.436826    1.669180 N.am      1 <1>        -0.290415 
      9 C           2.114395    3.208787   -2.058617 C.3       1 <1>         0.093590 
     10 C           5.467156    1.644330    1.875548 C.2       1 <1>        -0.038153 
     11 C           4.714849    0.531489    1.851780 C.2       1 <1>        -0.003049 
     12 C           2.366348    1.360459    1.764544 C.2       1 <1>         0.237115 
     13 N           1.019530    1.339757   -2.674361 N.am      1 <1>        -0.287079 
     14 C           3.012278    2.551462   -3.128168 C.3       1 <1>        -0.007986 
     15 C           2.055342    1.480411   -3.707912 C.3       1 <1>         0.017990 
     16 C           0.401895    2.610753   -0.371070 C.2       1 <1>         0.236720 
     17 C           1.351199    2.019444   -1.394103 C.3       1 <1>         0.128660 
     18 N           0.178110    2.085120    0.863567 N.am      1 <1>        -0.302375 
     19 C          -0.102424    0.618491   -3.030474 C.2       1 <1>         0.219763 
     20 C           0.934994    0.965358    1.449257 C.3       1 <1>         0.099947 
     21 C           0.327159    0.481006    2.809993 C.3       1 <1>        -0.023619 
     22 C          -1.406882   -1.001533   -1.459975 C.3       1 <1>         0.018502 
     23 C          -1.425705    0.300149   -2.321044 C.3       1 <1>         0.042699 
     24 O           5.567217    3.898990    3.594627 O.3       1 <1>        -0.347323 
     25 O          -0.169134    3.651815   -0.658664 O.2       1 <1>        -0.273659 
     26 C          -1.259976   -2.270291   -2.285694 C.2       1 <1>         0.151027 
     27 C          -1.836901   -3.599071   -1.817646 C.3       1 <1>         0.068744 
     28 O           2.503585    2.508935    2.144247 O.2       1 <1>        -0.273447 
     29 O          -0.080537    0.155304   -4.161159 O.2       1 <1>        -0.275267 
     30 N          -3.007390   -3.986730   -2.653516 N.3       1 <1>        -0.298975 
     31 C          -2.082968   -3.736230   -0.282289 C.3       1 <1>        -0.028133 
     32 C          -3.193171   -5.375607   -3.140333 C.3       1 <1>        -0.012383 
     33 C          -4.254720   -3.198797   -2.592158 C.3       1 <1>        -0.012383 
     34 C          -2.048690    1.547039   -1.629914 C.3       1 <1>        -0.039178 
     35 O          -0.637554   -2.244268   -3.336325 O.2       1 <1>        -0.295719 
     36 C           4.669841    3.585126    4.672143 C.3       1 <1>         0.043051 
     37 C          -1.875621   -5.162040    0.317996 C.3       1 <1>        -0.044907 
     38 C          -0.366521   -5.556121    0.289869 C.3       1 <1>        -0.062605 
     39 C          -2.399002   -5.233187    1.785404 C.3       1 <1>        -0.062605 
     40 C          -0.529573   -0.809361    2.666662 C.3       1 <1>        -0.044591 
     41 C           0.398135   -2.061229    2.679364 C.3       1 <1>        -0.062595 
     42 C          -1.582607   -0.915775    3.803029 C.3       1 <1>        -0.062595 
     43 C          -3.537310    1.926696   -1.904640 C.3       1 <1>        -0.046020 
     44 C          -4.548023    0.868022   -1.397165 C.3       1 <1>        -0.062645 
     45 C          -3.843735    3.298209   -1.227980 C.3       1 <1>        -0.062645 
     46 H           2.925356    6.222861    0.608803 H         1 <1>         0.064408 
     47 H           4.250715    2.249724   -0.462191 H         1 <1>         0.064999 
     48 H           4.231050    6.111234    2.700700 H         1 <1>         0.064426 
     49 H           3.062433   -0.501660    1.499524 H         1 <1>         0.154295 
     50 H           1.363628    3.778907   -2.635342 H         1 <1>         0.062512 
     51 H           6.532767    1.618302    2.124301 H         1 <1>         0.063669 
     52 H           5.276792   -0.393672    1.995643 H         1 <1>         0.078218 
     53 H           3.368594    3.266592   -3.886270 H         1 <1>         0.030620 
     54 H           3.887346    2.064095   -2.683781 H         1 <1>         0.030620 
     55 H           2.568212    0.521725   -3.905209 H         1 <1>         0.046547 
     56 H           1.618228    1.860721   -4.646590 H         1 <1>         0.046547 
     57 H           2.094398    1.394193   -0.887593 H         1 <1>         0.062297 
     58 H          -0.496865    2.561412    1.423266 H         1 <1>         0.149508 
     59 H           0.952274    0.135488    0.730614 H         1 <1>         0.059460 
     60 H          -0.269267    1.291586    3.259524 H         1 <1>         0.029028 
     61 H           1.121930    0.264530    3.546319 H         1 <1>         0.029028 
     62 H          -2.318441   -1.052446   -0.847983 H         1 <1>         0.034941 
     63 H          -0.540443   -0.942840   -0.788406 H         1 <1>         0.034941 
     64 H          -2.157756    0.081063   -3.120925 H         1 <1>         0.039831 
     65 H          -1.023969   -4.285019   -2.084201 H         1 <1>         0.054105 
     66 H          -3.096446   -3.383811   -0.061055 H         1 <1>         0.028695 
     67 H          -1.386618   -3.079196    0.256014 H         1 <1>         0.028695 
     68 H          -3.668768   -5.342548   -4.132719 H         1 <1>         0.039071 
     69 H          -2.244318   -5.918911   -3.241368 H         1 <1>         0.039071 
     70 H          -3.850842   -5.933354   -2.457708 H         1 <1>         0.039071 
     71 H          -5.062226   -3.783817   -2.126428 H         1 <1>         0.039071 
     72 H          -4.555373   -2.917230   -3.612434 H         1 <1>         0.039071 
     73 H          -4.112719   -2.288011   -2.009044 H         1 <1>         0.039071 
     74 H          -1.520326    2.402712   -2.063360 H         1 <1>         0.027508 
     75 H          -1.881498    1.484895   -0.546967 H         1 <1>         0.027508 
     76 H           5.252076    3.504089    5.601577 H         1 <1>         0.052870 
     77 H           3.920625    4.381872    4.795777 H         1 <1>         0.052870 
     78 H           4.153937    2.627659    4.497587 H         1 <1>         0.052870 
     79 H          -2.465355   -5.896108   -0.254430 H         1 <1>         0.029608 
     80 H          -0.183305   -6.452805    0.898013 H         1 <1>         0.023234 
     81 H          -0.018589   -5.782800   -0.725368 H         1 <1>         0.023234 
     82 H           0.258958   -4.744383    0.691069 H         1 <1>         0.023234 
     83 H          -2.328660   -6.259274    2.179123 H         1 <1>         0.023234 
     84 H          -3.453864   -4.927111    1.850213 H         1 <1>         0.023234 
     85 H          -1.818802   -4.582529    2.452029 H         1 <1>         0.023234 
     86 H          -1.094390   -0.769303    1.721693 H         1 <1>         0.029618 
     87 H           1.020057   -2.086134    3.590491 H         1 <1>         0.023234 
     88 H           1.068832   -2.079201    1.805708 H         1 <1>         0.023234 
     89 H          -0.202020   -2.978151    2.666113 H         1 <1>         0.023234 
     90 H          -2.232568   -0.026280    3.799831 H         1 <1>         0.023234 
     91 H          -1.083109   -0.990002    4.780493 H         1 <1>         0.023234 
     92 H          -2.213988   -1.806565    3.654510 H         1 <1>         0.023234 
     93 H          -3.683120    2.052421   -2.993175 H         1 <1>         0.029568 
     94 H          -5.581305    1.229396   -1.526315 H         1 <1>         0.023233 
     95 H          -4.440016   -0.049784   -1.984153 H         1 <1>         0.023233 
     96 H          -4.388013    0.639020   -0.332056 H         1 <1>         0.023233 
     97 H          -4.873491    3.621593   -1.447433 H         1 <1>         0.023233 
     98 H          -3.161273    4.082066   -1.594104 H         1 <1>         0.023233 
     99 H          -3.727048    3.223271   -0.134859 H         1 <1>         0.023233 
@<TRIPOS>BOND
     1    2    1 1    
     2    1    6 2    
     3    1   46 1    
     4    2    3 2    
     5    7    2 1    
     6    3    4 1    
     7    3   47 1    
     8    4    5 2    
     9    4   10 1    
    10    6    5 1    
    11    5   24 1    
    12    6   48 1    
    13    9    7 1    
    14   11    8 1    
    15    8   12 1    
    16    8   49 1    
    17    9   14 1    
    18   17    9 1    
    19    9   50 1    
    20   10   11 2    
    21   10   51 1    
    22   11   52 1    
    23   12   20 1    
    24   12   28 2    
    25   13   15 1    
    26   13   17 1    
    27   13   19 1    
    28   14   15 1    
    29   14   53 1    
    30   14   54 1    
    31   15   55 1    
    32   15   56 1    
    33   17   16 1    
    34   16   18 1    
    35   16   25 2    
    36   17   57 1    
    37   18   20 1    
    38   18   58 1    
    39   19   23 1    
    40   19   29 2    
    41   20   21 1    
    42   20   59 1    
    43   21   40 1    
    44   21   60 1    
    45   21   61 1    
    46   23   22 1    
    47   22   26 1    
    48   22   62 1    
    49   22   63 1    
    50   23   34 1    
    51   23   64 1    
    52   24   36 1    
    53   26   27 1    
    54   26   35 2    
    55   27   30 1    
    56   27   31 1    
    57   27   65 1    
    58   30   32 1    
    59   30   33 1    
    60   31   37 1    
    61   31   66 1    
    62   31   67 1    
    63   32   68 1    
    64   32   69 1    
    65   32   70 1    
    66   33   71 1    
    67   33   72 1    
    68   33   73 1    
    69   34   43 1    
    70   34   74 1    
    71   34   75 1    
    72   36   76 1    
    73   36   77 1    
    74   36   78 1    
    75   37   38 1    
    76   37   39 1    
    77   37   79 1    
    78   38   80 1    
    79   38   81 1    
    80   38   82 1    
    81   39   83 1    
    82   39   84 1    
    83   39   85 1    
    84   40   41 1    
    85   40   42 1    
    86   40   86 1    
    87   41   87 1    
    88   41   88 1    
    89   41   89 1    
    90   42   90 1    
    91   42   91 1    
    92   42   92 1    
    93   43   44 1    
    94   43   45 1    
    95   43   93 1    
    96   44   94 1    
    97   44   95 1    
    98   44   96 1    
    99   45   97 1    
   100   45   98 1    
   101   45   99 1    
@<TRIPOS>SUBSTRUCTURE
     1 ****       13 TEMP              0 ****  ****    0 ROOT 
@<TRIPOS>NORMAL
@<TRIPOS>FF_PBC
FORCE_FIELD_SETUP_FEATURE Force Field Setup information
v1.0  0 0.000000 0.000000 0.000000 0.000000 0.000000 0.000000 NONE 0 0 0 0 1 0 0 0 0 0 0 0 0
