@<TRIPOS>MOLECULE
MOL006948
   31    33     1     1     0
SMALL
GASTEIGER


@<TRIPOS>ATOM
      1 N           1.359867   -0.029924   -0.427328 N.ar      1 <1>        -0.131644 
      2 C           0.744504    0.577922   -1.469733 C.ar      1 <1>         0.340620 
      3 C           1.295185    0.468179    0.986227 C.3       1 <1>         0.298102 
      4 C           2.048737   -1.158023   -0.921495 C.ar      1 <1>         0.271980 
      5 C           1.017187   -0.124740   -2.539361 C.ar      1 <1>         0.223156 
      6 N          -0.025160    1.681190   -1.547781 N.2       1 <1>        -0.177277 
      7 O           0.064808    1.183447    1.159386 O.3       1 <1>        -0.309356 
      8 C           1.097215   -0.655561    2.025051 C.3       1 <1>         0.172815 
      9 N           1.812770   -1.190503   -2.239279 N.ar      1 <1>        -0.180097 
     10 C           0.448715    0.320211   -3.861903 C.2       1 <1>         0.275703 
     11 C          -0.522794    2.085663   -2.651277 C.2       1 <1>         0.094355 
     12 C          -1.004943    0.219788    1.235147 C.3       1 <1>         0.116889 
     13 C          -0.324367   -1.120542    1.637502 C.3       1 <1>         0.118333 
     14 O           2.110254   -1.673089    1.935141 O.3       1 <1>        -0.380303 
     15 N          -0.312194    1.437146   -3.826869 N.am      1 <1>        -0.270697 
     16 O           0.678189   -0.308359   -4.880998 O.2       1 <1>        -0.267846 
     17 C          -2.049623    0.692717    2.273326 C.3       1 <1>         0.073153 
     18 O          -0.216671   -2.000584    0.499118 O.3       1 <1>        -0.386238 
     19 O          -3.066623   -0.319434    2.375308 O.3       1 <1>        -0.392364 
     20 H           2.171718    1.097680    1.213024 H         1 <1>         0.144492 
     21 H           2.654607   -1.872135   -0.372316 H         1 <1>         0.162032 
     22 H           1.088531   -0.206417    3.035399 H         1 <1>         0.071554 
     23 H          -1.136420    2.988993   -2.620768 H         1 <1>         0.100330 
     24 H          -1.500088    0.117394    0.255375 H         1 <1>         0.064805 
     25 H          -0.811318   -1.641245    2.481422 H         1 <1>         0.064917 
     26 H           1.944189   -2.402017    2.527307 H         1 <1>         0.210285 
     27 H          -0.715232    1.776389   -4.680245 H         1 <1>         0.156043 
     28 H          -1.553213    0.848131    3.246072 H         1 <1>         0.058372 
     29 H          -2.480458    1.652332    1.939391 H         1 <1>         0.058372 
     30 H          -1.060596   -2.348367    0.221134 H         1 <1>         0.210008 
     31 H          -3.757182   -0.095941    2.993923 H         1 <1>         0.209508 
@<TRIPOS>BOND
     1    1    2 1    
     2    1    3 1    
     3    1    4 1    
     4    2    5 2    
     5    2    6 1    
     6    3    7 1    
     7    3    8 1    
     8    3   20 1    
     9    4    9 2    
    10    4   21 1    
    11    5    9 1    
    12    5   10 1    
    13    6   11 2    
    14    7   12 1    
    15    8   13 1    
    16    8   14 1    
    17    8   22 1    
    18   10   15 1    
    19   10   16 2    
    20   11   15 1    
    21   11   23 1    
    22   12   13 1    
    23   12   17 1    
    24   12   24 1    
    25   13   18 1    
    26   13   25 1    
    27   14   26 1    
    28   15   27 1    
    29   17   19 1    
    30   17   28 1    
    31   17   29 1    
    32   18   30 1    
    33   19   31 1    
@<TRIPOS>SUBSTRUCTURE
     1 ****        1 TEMP              0 ****  ****    0 ROOT 
@<TRIPOS>NORMAL
@<TRIPOS>FF_PBC
FORCE_FIELD_SETUP_FEATURE Force Field Setup information
v1.0  0 0.000000 0.000000 0.000000 0.000000 0.000000 0.000000 NONE 0 0 0 0 1 0 0 0 0 0 0 0 0
