@<TRIPOS>MOLECULE
MOL001996
   79    83     1     1     0
SMALL
GASTEIGER


@<TRIPOS>ATOM
      1 C          -4.697209   -2.456312   -1.952381 C.2       1 <1>         0.139227 
      2 C          -3.993391   -1.645958   -3.000193 C.3       1 <1>         0.006881 
      3 C          -3.836012   -3.317732   -1.052901 C.3       1 <1>         0.026692 
      4 O          -5.909977   -2.386418   -1.828167 O.2       1 <1>        -0.296829 
      5 C          -3.013000   -0.624797   -2.351785 C.3       1 <1>        -0.040372 
      6 C          -2.527962   -0.996372   -0.896756 C.3       1 <1>        -0.024637 
      7 C          -2.471737   -2.565637   -0.796278 C.3       1 <1>        -0.023497 
      8 C          -4.646843   -3.657565    0.240737 C.3       1 <1>        -0.052812 
      9 C          -3.596344   -4.672365   -1.793373 C.3       1 <1>        -0.052812 
     10 C          -1.066229   -0.408596   -0.680684 C.3       1 <1>        -0.029420 
     11 C          -0.250625   -0.880760    0.590082 C.3       1 <1>        -0.023070 
     12 C          -0.327290   -2.445941    0.631388 C.3       1 <1>        -0.046550 
     13 C          -1.755237   -3.048428    0.497540 C.3       1 <1>        -0.048309 
     14 C          -0.947400    1.137734   -0.919816 C.3       1 <1>        -0.048916 
     15 C           0.508074    1.681448   -0.855434 C.3       1 <1>        -0.049114 
     16 C           1.234427    1.175210    0.420256 C.3       1 <1>        -0.030772 
     17 C           1.279187   -0.401795    0.470464 C.3       1 <1>        -0.023246 
     18 C           2.633612    1.825493    0.606292 C.3       1 <1>        -0.016530 
     19 C           3.245868    1.392766    1.963323 C.3       1 <1>         0.059584 
     20 C           3.519042   -0.136121    1.888285 C.3       1 <1>        -0.037524 
     21 C           2.176294   -0.908854    1.674538 C.3       1 <1>        -0.045876 
     22 C           2.753583    3.377506    0.597286 C.3       1 <1>        -0.016314 
     23 C           3.992869    3.668150    1.503385 C.3       1 <1>        -0.045260 
     24 C           4.510272    2.286404    1.994326 C.3       1 <1>        -0.037496 
     25 C           2.422574    1.694634    3.211047 C.2       1 <1>         0.266102 
     26 O           2.331571    0.901085    4.135511 O.2       1 <1>        -0.264547 
     27 O           1.795148    2.869926    3.273724 O.3       1 <1>        -0.330843 
     28 H           0.651653    1.581651    1.256064 H         1 <1>         0.030934 
     29 C           2.876102    4.049412   -0.765880 C.2       1 <1>        -0.076310 
     30 C           2.124223    5.110013   -1.097177 C.2       1 <1>        -0.099438 
     31 C           3.884628    3.489946   -1.748617 C.3       1 <1>        -0.043768 
     32 H           3.296480    1.485240   -0.194469 H         1 <1>         0.031953 
     33 C           2.044039   -0.971036   -0.797791 C.3       1 <1>        -0.058792 
     34 C          -0.928850   -0.318758    1.906259 C.3       1 <1>        -0.058784 
     35 C          -3.585389   -0.406712    0.096445 C.3       1 <1>        -0.058999 
     36 H          -1.804046   -2.860986   -1.622833 H         1 <1>         0.031535 
     37 H          -0.533657   -0.854726   -1.524484 H         1 <1>         0.031155 
     38 H          -4.727286   -1.129126   -3.640705 H         1 <1>         0.034189 
     39 H          -3.448291   -2.352225   -3.645600 H         1 <1>         0.034189 
     40 H          -2.178696   -0.534858   -3.066737 H         1 <1>         0.027469 
     41 H          -3.502460    0.363226   -2.327186 H         1 <1>         0.027469 
     42 H          -4.116903   -4.386399    0.871239 H         1 <1>         0.023909 
     43 H          -4.859038   -2.768829    0.847703 H         1 <1>         0.023909 
     44 H          -5.614554   -4.114185   -0.019783 H         1 <1>         0.023909 
     45 H          -4.558348   -5.158219   -2.019917 H         1 <1>         0.023909 
     46 H          -3.006638   -5.361022   -1.170722 H         1 <1>         0.023909 
     47 H          -3.062184   -4.541505   -2.745710 H         1 <1>         0.023909 
     48 H           0.126022   -2.818803    1.563706 H         1 <1>         0.027087 
     49 H           0.221166   -2.890992   -0.207173 H         1 <1>         0.027087 
     50 H          -1.647391   -4.145669    0.460618 H         1 <1>         0.026856 
     51 H          -2.360096   -2.834279    1.385111 H         1 <1>         0.026856 
     52 H          -1.340044    1.418400   -1.909145 H         1 <1>         0.026837 
     53 H          -1.528178    1.712468   -0.187847 H         1 <1>         0.026837 
     54 H           1.069558    1.422852   -1.763173 H         1 <1>         0.026829 
     55 H           0.452735    2.782478   -0.839599 H         1 <1>         0.026829 
     56 H           4.006988   -0.468360    2.820044 H         1 <1>         0.027568 
     57 H           4.232597   -0.358962    1.081591 H         1 <1>         0.027568 
     58 H           2.440516   -1.969681    1.537208 H         1 <1>         0.027106 
     59 H           1.663215   -0.898879    2.637813 H         1 <1>         0.027106 
     60 H           1.851982    3.775286    1.088424 H         1 <1>         0.034848 
     61 H           3.695799    4.282493    2.370072 H         1 <1>         0.027135 
     62 H           4.790946    4.219531    0.980618 H         1 <1>         0.027135 
     63 H           5.255868    1.902807    1.277919 H         1 <1>         0.027568 
     64 H           4.981758    2.328815    2.989709 H         1 <1>         0.027568 
     65 H           1.304609    2.977771    4.081310 H         1 <1>         0.220226 
     66 H           2.211024    5.586673   -2.073055 H         1 <1>         0.053440 
     67 H           1.395769    5.541184   -0.411417 H         1 <1>         0.053440 
     68 H           4.805586    3.167000   -1.241694 H         1 <1>         0.027436 
     69 H           3.447850    2.630709   -2.278756 H         1 <1>         0.027436 
     70 H           4.170543    4.238395   -2.503182 H         1 <1>         0.027436 
     71 H           2.174075   -2.059697   -0.763911 H         1 <1>         0.023533 
     72 H           3.067970   -0.597371   -0.877125 H         1 <1>         0.023533 
     73 H           1.607302   -0.755235   -1.776059 H         1 <1>         0.023533 
     74 H          -1.582073    0.537056    1.715217 H         1 <1>         0.023533 
     75 H          -1.533509   -1.061733    2.435550 H         1 <1>         0.023533 
     76 H          -0.249130    0.047216    2.679508 H         1 <1>         0.023533 
     77 H          -3.472696   -0.778816    1.118805 H         1 <1>         0.023525 
     78 H          -3.542015    0.688825    0.130993 H         1 <1>         0.023525 
     79 H          -4.611261   -0.642269   -0.213617 H         1 <1>         0.023525 
@<TRIPOS>BOND
     1    1    2 1    
     2    1    3 1    
     3    1    4 2    
     4    2    5 1    
     5    2   38 1    
     6    2   39 1    
     7    3    7 1    
     8    3    8 1    
     9    3    9 1    
    10    5    6 1    
    11    5   40 1    
    12    5   41 1    
    13    6    7 1    
    14    6   10 1    
    15    6   35 1    
    16    7   13 1    
    17    7   36 1    
    18    8   42 1    
    19    8   43 1    
    20    8   44 1    
    21    9   45 1    
    22    9   46 1    
    23    9   47 1    
    24   10   11 1    
    25   10   14 1    
    26   10   37 1    
    27   11   12 1    
    28   11   17 1    
    29   11   34 1    
    30   12   13 1    
    31   12   48 1    
    32   12   49 1    
    33   13   50 1    
    34   13   51 1    
    35   14   15 1    
    36   14   52 1    
    37   14   53 1    
    38   15   16 1    
    39   15   54 1    
    40   15   55 1    
    41   16   17 1    
    42   16   18 1    
    43   16   28 1    
    44   17   21 1    
    45   17   33 1    
    46   18   19 1    
    47   18   22 1    
    48   18   32 1    
    49   19   20 1    
    50   19   24 1    
    51   19   25 1    
    52   20   21 1    
    53   20   56 1    
    54   20   57 1    
    55   21   58 1    
    56   21   59 1    
    57   22   23 1    
    58   22   29 1    
    59   22   60 1    
    60   23   24 1    
    61   23   61 1    
    62   23   62 1    
    63   24   63 1    
    64   24   64 1    
    65   25   26 2    
    66   25   27 1    
    67   27   65 1    
    68   29   30 2    
    69   29   31 1    
    70   30   66 1    
    71   30   67 1    
    72   31   68 1    
    73   31   69 1    
    74   31   70 1    
    75   33   71 1    
    76   33   72 1    
    77   33   73 1    
    78   34   74 1    
    79   34   75 1    
    80   34   76 1    
    81   35   77 1    
    82   35   78 1    
    83   35   79 1    
@<TRIPOS>SUBSTRUCTURE
     1 ****        1 TEMP              0 ****  ****    0 ROOT 
@<TRIPOS>NORMAL
@<TRIPOS>FF_PBC
FORCE_FIELD_SETUP_FEATURE Force Field Setup information
v1.0  0 0.000000 0.000000 0.000000 0.000000 0.000000 0.000000 NONE 0 0 0 0 1 0 0 0 0 0 0 0 0
