@<TRIPOS>MOLECULE
MOL004803
   58    60     1     1     0
SMALL
GASTEIGER


@<TRIPOS>ATOM
      1 C          -2.187304    1.950668    1.352735 C.ar      1 <1>         0.093541 
      2 O          -1.005563    1.219831    1.225393 O.3       1 <1>        -0.332787 
      3 C          -2.160391    3.299568    1.275174 C.ar      1 <1>         0.050520 
      4 C          -3.469637    1.234855    1.580899 C.ar      1 <1>         0.016688 
      5 C          -0.834519    3.997798    1.075234 C.2       1 <1>         0.196728 
      6 C           0.009932    1.802445    0.392074 C.3       1 <1>         0.123207 
      7 C           0.429071    3.181509    0.955639 C.3       1 <1>         0.148142 
      8 C          -3.482191   -0.299492    1.680691 C.3       1 <1>        -0.004333 
      9 C           1.184242    0.817949    0.331786 C.ar      1 <1>        -0.015061 
     10 C          -3.420724    4.072082    1.386901 C.ar      1 <1>        -0.046237 
     11 C           2.947198   -0.358405   -1.029372 C.ar      1 <1>        -0.013596 
     12 C           1.911874    0.597131   -0.942196 C.ar      1 <1>        -0.050086 
     13 C          -4.532788   -0.932187    0.797426 C.2       1 <1>        -0.080815 
     14 C          -4.621407    1.947443    1.707669 C.ar      1 <1>         0.078530 
     15 C           5.156519   -0.805314   -2.197105 C.2       1 <1>        -0.080898 
     16 C           3.323280   -1.143448    0.174352 C.ar      1 <1>         0.076054 
     17 O          -0.800782    5.217319    1.012475 O.2       1 <1>        -0.289092 
     18 C           3.671325   -0.584100   -2.364822 C.3       1 <1>        -0.006801 
     19 C          -4.590213    3.429109    1.588227 C.ar      1 <1>        -0.030836 
     20 C          -4.978680   -2.192913    0.929193 C.2       1 <1>        -0.079306 
     21 C           5.917247   -1.534989   -3.028584 C.2       1 <1>        -0.079307 
     22 C           1.568627    0.102567    1.476587 C.ar      1 <1>        -0.053558 
     23 C           2.658294   -0.898399    1.401293 C.ar      1 <1>        -0.031322 
     24 O          -5.824184    1.279655    1.949819 O.3       1 <1>        -0.359468 
     25 O           4.326410   -2.114000    0.079767 O.3       1 <1>        -0.359551 
     26 C           7.386047   -1.769490   -2.748007 C.3       1 <1>        -0.044040 
     27 C           5.380325   -2.178981   -4.289685 C.3       1 <1>        -0.044040 
     28 C          -6.069078   -2.736901    0.031409 C.3       1 <1>        -0.044040 
     29 C          -4.445754   -3.161874    1.962484 C.3       1 <1>        -0.044040 
     30 O           1.369936    3.833442    0.075679 O.3       1 <1>        -0.380953 
     31 H          -0.400911    1.932841   -0.622261 H         1 <1>         0.068214 
     32 H           0.854822    3.065192    1.965893 H         1 <1>         0.070644 
     33 H          -3.666372   -0.543250    2.738060 H         1 <1>         0.035721 
     34 H          -2.505751   -0.716140    1.388393 H         1 <1>         0.035721 
     35 H          -3.397483    5.153585    1.301944 H         1 <1>         0.062611 
     36 H           1.637207    1.177245   -1.816101 H         1 <1>         0.062472 
     37 H          -4.943977   -0.305201    0.006144 H         1 <1>         0.057473 
     38 H           5.617158   -0.331510   -1.329375 H         1 <1>         0.057472 
     39 H           3.180968   -1.460586   -2.813621 H         1 <1>         0.035640 
     40 H           3.537457    0.280869   -3.032174 H         1 <1>         0.035640 
     41 H          -5.512525    3.997216    1.659223 H         1 <1>         0.064350 
     42 H           1.061058    0.266195    2.421695 H         1 <1>         0.062191 
     43 H           2.928717   -1.450057    2.296236 H         1 <1>         0.064338 
     44 H          -6.556175    1.859559    2.126222 H         1 <1>         0.217326 
     45 H           4.532477   -2.559629    0.893718 H         1 <1>         0.217325 
     46 H           7.995535   -1.360180   -3.567247 H         1 <1>         0.027427 
     47 H           7.721917   -1.308211   -1.806801 H         1 <1>         0.027427 
     48 H           7.567538   -2.852292   -2.677511 H         1 <1>         0.027427 
     49 H           4.547497   -1.608549   -4.727922 H         1 <1>         0.027427 
     50 H           6.164749   -2.241515   -5.059823 H         1 <1>         0.027427 
     51 H           5.035881   -3.198430   -4.058481 H         1 <1>         0.027427 
     52 H          -5.661256   -3.550230   -0.586796 H         1 <1>         0.027427 
     53 H          -6.888079   -3.137763    0.646794 H         1 <1>         0.027427 
     54 H          -6.492857   -1.974568   -0.639385 H         1 <1>         0.027427 
     55 H          -3.453560   -2.888778    2.348026 H         1 <1>         0.027427 
     56 H          -4.356049   -4.167056    1.524137 H         1 <1>         0.027427 
     57 H          -5.150049   -3.210083    2.805310 H         1 <1>         0.027427 
     58 H           2.195313    3.364884   -0.005947 H         1 <1>         0.210495 
@<TRIPOS>BOND
     1    1    2 1    
     2    1    3 2    
     3    1    4 1    
     4    2    6 1    
     5    3    5 1    
     6    3   10 1    
     7    4    8 1    
     8    4   14 2    
     9    5    7 1    
    10    5   17 2    
    11    6    7 1    
    12    6    9 1    
    13    6   31 1    
    14    7   30 1    
    15    7   32 1    
    16    8   13 1    
    17    8   33 1    
    18    8   34 1    
    19    9   12 1    
    20    9   22 2    
    21   10   19 2    
    22   10   35 1    
    23   12   11 2    
    24   11   16 1    
    25   11   18 1    
    26   12   36 1    
    27   13   20 2    
    28   13   37 1    
    29   14   19 1    
    30   14   24 1    
    31   18   15 1    
    32   15   21 2    
    33   15   38 1    
    34   16   23 2    
    35   16   25 1    
    36   18   39 1    
    37   18   40 1    
    38   19   41 1    
    39   20   28 1    
    40   20   29 1    
    41   21   26 1    
    42   21   27 1    
    43   22   23 1    
    44   22   42 1    
    45   23   43 1    
    46   24   44 1    
    47   25   45 1    
    48   26   46 1    
    49   26   47 1    
    50   26   48 1    
    51   27   49 1    
    52   27   50 1    
    53   27   51 1    
    54   28   52 1    
    55   28   53 1    
    56   28   54 1    
    57   29   55 1    
    58   29   56 1    
    59   29   57 1    
    60   30   58 1    
@<TRIPOS>SUBSTRUCTURE
     1 ****        1 TEMP              0 ****  ****    0 ROOT 
@<TRIPOS>NORMAL
@<TRIPOS>FF_PBC
FORCE_FIELD_SETUP_FEATURE Force Field Setup information
v1.0  0 0.000000 0.000000 0.000000 0.000000 0.000000 0.000000 NONE 0 0 0 0 1 0 0 0 0 0 0 0 0
