@<TRIPOS>MOLECULE
MOL002737
   31    33     1     1     0
SMALL
GASTEIGER


@<TRIPOS>ATOM
      1 C          -1.340132    0.753873   -0.002416 C.ar      1 <1>         0.098972 
      2 C          -0.881695    2.157038    0.031302 C.ar      1 <1>         0.084483 
      3 O          -0.415401   -0.292654   -0.011150 O.3       1 <1>        -0.307709 
      4 C          -2.708921    0.467598   -0.025827 C.ar      1 <1>         0.002007 
      5 C           0.612998    2.340681    0.054371 C.2       1 <1>         0.193594 
      6 C          -1.808642    3.219564    0.040269 C.ar      1 <1>         0.118231 
      7 C           0.917229   -0.108239    0.009826 C.2       1 <1>         0.093865 
      8 C          -3.703987    1.570184   -0.016924 C.ar      1 <1>         0.107299 
      9 C           1.441977    1.128003    0.041155 C.2       1 <1>         0.016920 
     10 O           1.132679    3.444253    0.082968 O.2       1 <1>        -0.287016 
     11 C          -3.262038    2.915616    0.015397 C.ar      1 <1>         0.133297 
     12 O          -1.362967    4.541598    0.072189 O.3       1 <1>        -0.356594 
     13 C           1.756405   -1.375218   -0.004377 C.ar      1 <1>         0.005751 
     14 O          -5.076095    1.304629   -0.039954 O.3       1 <1>        -0.357155 
     15 O          -4.181402    3.968781    0.024278 O.3       1 <1>        -0.355379 
     16 C           1.038936   -2.677280   -0.038985 C.ar      1 <1>        -0.049682 
     17 C           3.182694   -1.405582    0.013075 C.ar      1 <1>        -0.049682 
     18 C           1.737155   -3.894764   -0.054007 C.ar      1 <1>        -0.031304 
     19 C           3.917523   -2.693769   -0.002846 C.ar      1 <1>        -0.031304 
     20 C           3.216089   -3.915442   -0.035670 C.ar      1 <1>         0.072619 
     21 O           3.882785   -5.143501   -0.051280 O.3       1 <1>        -0.359832 
     22 H          -3.031915   -0.567058   -0.050485 H         1 <1>         0.067031 
     23 H           2.508174    1.330461    0.059073 H         1 <1>         0.068219 
     24 H          -2.089128    5.157352    0.074901 H         1 <1>         0.217446 
     25 H          -5.287739    0.377870   -0.060819 H         1 <1>         0.217423 
     26 H          -5.080517    3.654152    0.006374 H         1 <1>         0.217502 
     27 H          -0.045728   -2.701534   -0.053198 H         1 <1>         0.062503 
     28 H           3.774824   -0.501416    0.038258 H         1 <1>         0.062503 
     29 H           1.196052   -4.834758   -0.079294 H         1 <1>         0.064339 
     30 H           5.002303   -2.683692    0.011102 H         1 <1>         0.064339 
     31 H           4.830754   -5.076097   -0.037893 H         1 <1>         0.217313 
@<TRIPOS>BOND
     1    1    2 1    
     2    1    3 1    
     3    1    4 2    
     4    2    5 1    
     5    2    6 2    
     6    3    7 1    
     7    4    8 1    
     8    4   22 1    
     9    5    9 1    
    10    5   10 2    
    11    6   11 1    
    12    6   12 1    
    13    7    9 2    
    14    7   13 1    
    15    8   11 2    
    16    8   14 1    
    17    9   23 1    
    18   11   15 1    
    19   12   24 1    
    20   13   16 1    
    21   13   17 2    
    22   14   25 1    
    23   15   26 1    
    24   16   18 2    
    25   16   27 1    
    26   17   19 1    
    27   17   28 1    
    28   18   20 1    
    29   18   29 1    
    30   19   20 2    
    31   19   30 1    
    32   20   21 1    
    33   21   31 1    
@<TRIPOS>SUBSTRUCTURE
     1 ****        1 TEMP              0 ****  ****    0 ROOT 
@<TRIPOS>NORMAL
@<TRIPOS>FF_PBC
FORCE_FIELD_SETUP_FEATURE Force Field Setup information
v1.0  0 0.000000 0.000000 0.000000 0.000000 0.000000 0.000000 NONE 0 0 0 0 1 0 0 0 0 0 0 0 0
