@<TRIPOS>MOLECULE
MOL004611
   41    40     1     1     0
SMALL
GASTEIGER


@<TRIPOS>ATOM
      1 C           0.145285   -1.098690   -0.074744 C.3       1 <1>        -0.032294 
      2 C           1.357735   -0.161920   -0.434926 C.3       1 <1>        -0.047628 
      3 C          -1.174327   -0.255838   -0.181280 C.3       1 <1>        -0.047636 
      4 C           0.177364   -2.282467   -1.111314 C.3       1 <1>        -0.050472 
      5 C           0.328341   -1.642553    1.376462 C.3       1 <1>        -0.059569 
      6 C           1.482018    1.190088    0.330498 C.3       1 <1>        -0.052573 
      7 C          -2.524959   -1.025608   -0.154430 C.3       1 <1>        -0.052813 
      8 C           2.762599    1.960919   -0.099250 C.3       1 <1>        -0.053289 
      9 C          -0.441623   -3.644932   -0.678505 C.3       1 <1>        -0.064783 
     10 C          -3.734027   -0.048104   -0.152126 C.3       1 <1>        -0.055894 
     11 C           2.893240    3.314172    0.652626 C.3       1 <1>        -0.055911 
     12 C          -5.082130   -0.815806   -0.160368 C.3       1 <1>        -0.065276 
     13 C           4.171178    4.079038    0.219587 C.3       1 <1>        -0.065276 
     14 H           2.296287   -0.715235   -0.267499 H         1 <1>         0.027051 
     15 H           1.306039    0.079910   -1.509650 H         1 <1>         0.027051 
     16 H          -1.203921    0.458307    0.656067 H         1 <1>         0.027051 
     17 H          -1.153909    0.323568   -1.118936 H         1 <1>         0.027051 
     18 H           1.221891   -2.531698   -1.363722 H         1 <1>         0.026787 
     19 H          -0.301348   -1.945889   -2.045327 H         1 <1>         0.026787 
     20 H           1.278288   -2.191869    1.461521 H         1 <1>         0.023507 
     21 H           0.335011   -0.832368    2.117881 H         1 <1>         0.023507 
     22 H          -0.485371   -2.321363    1.664574 H         1 <1>         0.023507 
     23 H           0.617637    1.837518    0.116191 H         1 <1>         0.026545 
     24 H           1.534369    1.022795    1.416328 H         1 <1>         0.026545 
     25 H          -2.612268   -1.657036   -1.052192 H         1 <1>         0.026537 
     26 H          -2.592575   -1.657533    0.744124 H         1 <1>         0.026537 
     27 H           3.652120    1.345304    0.113796 H         1 <1>         0.026520 
     28 H           2.728701    2.152801   -1.184492 H         1 <1>         0.026520 
     29 H          -0.435951   -4.335414   -1.537321 H         1 <1>         0.022994 
     30 H          -1.476933   -3.564019   -0.327144 H         1 <1>         0.022994 
     31 H           0.155988   -4.111427    0.120026 H         1 <1>         0.022994 
     32 H          -3.694544    0.591964    0.745278 H         1 <1>         0.026265 
     33 H          -3.687477    0.603053   -1.041167 H         1 <1>         0.026265 
     34 H           2.010780    3.941485    0.442555 H         1 <1>         0.026265 
     35 H           2.935063    3.130892    1.739410 H         1 <1>         0.026265 
     36 H          -5.923466   -0.104760   -0.156196 H         1 <1>         0.022978 
     37 H          -5.161397   -1.445283   -1.060453 H         1 <1>         0.022978 
     38 H          -5.163826   -1.459562    0.729328 H         1 <1>         0.022978 
     39 H           4.244919    5.033374    0.764800 H         1 <1>         0.022978 
     40 H           5.069781    3.481071    0.437793 H         1 <1>         0.022978 
     41 H           4.143021    4.294076   -0.860054 H         1 <1>         0.022978 
@<TRIPOS>BOND
     1    1    2 1    
     2    1    3 1    
     3    1    4 1    
     4    1    5 1    
     5    2    6 1    
     6    2   14 1    
     7    2   15 1    
     8    3    7 1    
     9    3   16 1    
    10    3   17 1    
    11    4    9 1    
    12    4   18 1    
    13    4   19 1    
    14    5   20 1    
    15    5   21 1    
    16    5   22 1    
    17    6    8 1    
    18    6   23 1    
    19    6   24 1    
    20    7   10 1    
    21    7   25 1    
    22    7   26 1    
    23    8   11 1    
    24    8   27 1    
    25    8   28 1    
    26    9   29 1    
    27    9   30 1    
    28    9   31 1    
    29   10   12 1    
    30   10   32 1    
    31   10   33 1    
    32   11   13 1    
    33   11   34 1    
    34   11   35 1    
    35   12   36 1    
    36   12   37 1    
    37   12   38 1    
    38   13   39 1    
    39   13   40 1    
    40   13   41 1    
@<TRIPOS>SUBSTRUCTURE
     1 ****        1 TEMP              0 ****  ****    0 ROOT 
@<TRIPOS>NORMAL
@<TRIPOS>FF_PBC
FORCE_FIELD_SETUP_FEATURE Force Field Setup information
v1.0  0 0.000000 0.000000 0.000000 0.000000 0.000000 0.000000 NONE 0 0 0 0 1 0 0 0 0 0 0 0 0
