@<TRIPOS>MOLECULE
MOL002247
   51    54     1     1     0
SMALL
GASTEIGER


@<TRIPOS>ATOM
      1 C           0.412356    2.322919   -5.499508 C.ar      1 <1>        -0.047307 
      2 C          -0.150814    1.697999   -4.276856 C.ar      1 <1>        -0.047151 
      3 C           0.668786    1.140982   -3.335577 C.ar      1 <1>         0.035809 
      4 C           2.138658    1.161276   -3.533300 C.ar      1 <1>         0.062824 
      5 C           2.667667    1.743914   -4.681573 C.ar      1 <1>         0.084321 
      6 C           1.752524    2.338028   -5.683167 C.ar      1 <1>        -0.028282 
      7 C           0.088441    0.502160   -2.092630 C.2       1 <1>         0.194755 
      8 C           0.988264   -0.099740   -1.034926 C.ar      1 <1>         0.037997 
      9 C           2.458867   -0.079661   -1.227140 C.ar      1 <1>         0.062970 
     10 C           3.031010    0.546354   -2.478930 C.2       1 <1>         0.199440 
     11 C           0.453707   -0.662071    0.093622 C.ar      1 <1>        -0.019892 
     12 C           1.336487   -1.257843    1.132043 C.ar      1 <1>         0.082614 
     13 C           2.671153   -1.237059    0.951934 C.ar      1 <1>        -0.001059 
     14 C           3.280388   -0.635562   -0.255667 C.ar      1 <1>         0.086518 
     15 O           4.241564    0.555957   -2.641673 O.2       1 <1>        -0.286435 
     16 O           4.044841    1.789366   -4.924977 O.3       1 <1>        -0.359094 
     17 O           4.674191   -0.648210   -0.377808 O.3       1 <1>        -0.359019 
     18 O           0.829670   -1.845020    2.298375 O.3       1 <1>        -0.312448 
     19 C          -0.508460    2.949158   -6.553442 C.3       1 <1>        -0.039609 
     20 O          -1.122457    0.470214   -1.943972 O.2       1 <1>        -0.286608 
     21 O          -0.989281   -0.440289    2.645860 O.3       1 <1>        -0.340168 
     22 C          -2.392511   -0.283903    2.939860 C.3       1 <1>         0.113017 
     23 C          -2.698996   -0.866442    4.343805 C.3       1 <1>         0.111896 
     24 C          -2.265529   -2.353359    4.399552 C.3       1 <1>         0.114074 
     25 C          -0.782252   -2.488091    3.973603 C.3       1 <1>         0.134509 
     26 C          -0.573803   -1.817401    2.593595 C.3       1 <1>         0.193644 
     27 C          -2.746958    1.223329    2.869503 C.3       1 <1>         0.073015 
     28 O          -2.454957   -2.834702    5.743821 O.3       1 <1>        -0.386401 
     29 O          -4.108189   -0.746187    4.613376 O.3       1 <1>        -0.386488 
     30 O          -0.438722   -3.887218    3.930531 O.3       1 <1>        -0.384091 
     31 O          -2.575192    1.688265    1.516459 O.3       1 <1>        -0.392366 
     32 H          -1.226269    1.685848   -4.134320 H         1 <1>         0.062744 
     33 H           2.177139    2.789743   -6.573335 H         1 <1>         0.064604 
     34 H          -0.622215   -0.665649    0.215560 H         1 <1>         0.065059 
     35 H           3.318116   -1.669976    1.706685 H         1 <1>         0.066931 
     36 H           4.584013    1.384148   -4.252197 H         1 <1>         0.217340 
     37 H           5.011585   -0.244970   -1.172428 H         1 <1>         0.217341 
     38 H          -1.566712    2.870751   -6.263226 H         1 <1>         0.027755 
     39 H          -0.255284    4.013300   -6.674576 H         1 <1>         0.027755 
     40 H          -0.367944    2.432803   -7.515215 H         1 <1>         0.027755 
     41 H          -3.009823   -0.797443    2.183216 H         1 <1>         0.064668 
     42 H          -2.118333   -0.300922    5.093589 H         1 <1>         0.064673 
     43 H          -2.898898   -2.931348    3.704237 H         1 <1>         0.064758 
     44 H          -0.156850   -1.962554    4.715890 H         1 <1>         0.067108 
     45 H          -1.116855   -2.396902    1.828290 H         1 <1>         0.094159 
     46 H          -3.793814    1.375438    3.183488 H         1 <1>         0.058370 
     47 H          -2.083770    1.778545    3.553630 H         1 <1>         0.058370 
     48 H          -2.187627   -3.745315    5.835648 H         1 <1>         0.210005 
     49 H          -4.337748   -1.114718    5.462312 H         1 <1>         0.210004 
     50 H           0.468094   -4.021542    3.668851 H         1 <1>         0.210111 
     51 H          -2.767958    2.615000    1.409108 H         1 <1>         0.209508 
@<TRIPOS>BOND
     1    2    1 1    
     2    1    6 2    
     3    1   19 1    
     4    3    2 2    
     5    2   32 1    
     6    3    4 1    
     7    7    3 1    
     8    4    5 2    
     9   10    4 1    
    10    5    6 1    
    11    5   16 1    
    12    6   33 1    
    13    8    7 1    
    14    7   20 2    
    15    8    9 1    
    16   11    8 2    
    17    9   10 1    
    18   14    9 2    
    19   10   15 2    
    20   12   11 1    
    21   11   34 1    
    22   12   13 2    
    23   18   12 1    
    24   13   14 1    
    25   13   35 1    
    26   14   17 1    
    27   16   36 1    
    28   17   37 1    
    29   26   18 1    
    30   19   38 1    
    31   19   39 1    
    32   19   40 1    
    33   21   22 1    
    34   21   26 1    
    35   22   23 1    
    36   22   27 1    
    37   22   41 1    
    38   23   24 1    
    39   23   29 1    
    40   23   42 1    
    41   24   25 1    
    42   24   28 1    
    43   24   43 1    
    44   25   26 1    
    45   25   30 1    
    46   25   44 1    
    47   26   45 1    
    48   27   31 1    
    49   27   46 1    
    50   27   47 1    
    51   28   48 1    
    52   29   49 1    
    53   30   50 1    
    54   31   51 1    
@<TRIPOS>SUBSTRUCTURE
     1 ****       21 TEMP              0 ****  ****    0 ROOT 
@<TRIPOS>NORMAL
@<TRIPOS>FF_PBC
FORCE_FIELD_SETUP_FEATURE Force Field Setup information
v1.0  0 0.000000 0.000000 0.000000 0.000000 0.000000 0.000000 NONE 0 0 0 0 1 0 0 0 0 0 0 0 0
