@<TRIPOS>MOLECULE
MOL011598
   36    35     1     1     0
SMALL
GASTEIGER


@<TRIPOS>ATOM
      1 O          -2.978215   -1.875610    1.088579 O.2       1 <1>        -0.297693 
      2 C           1.102476    1.550214    0.629818 C.3       1 <1>        -0.028563 
      3 C          -0.093579    2.418295    0.287690 C.2       1 <1>        -0.076230 
      4 C           1.465850    0.625328   -0.560835 C.3       1 <1>        -0.030848 
      5 C          -1.873357    0.647567    0.797576 C.3       1 <1>        -0.027851 
      6 C          -1.372416    2.011285    0.374502 C.2       1 <1>        -0.084618 
      7 C          -2.712165    0.015343   -0.344511 C.3       1 <1>         0.008973 
      8 C           2.730644   -0.144683   -0.248735 C.2       1 <1>        -0.084989 
      9 C           0.237793    3.822136   -0.176080 C.3       1 <1>        -0.043778 
     10 C           2.793719   -1.442564    0.091415 C.2       1 <1>        -0.079608 
     11 C          -3.253090   -1.345297    0.024285 C.2       1 <1>         0.130612 
     12 C           4.118085   -2.124720    0.360713 C.3       1 <1>        -0.044049 
     13 C           1.565434   -2.314364    0.229880 C.3       1 <1>        -0.044049 
     14 C          -4.151046   -2.033739   -0.970378 C.3       1 <1>        -0.006054 
     15 H           0.922024    0.954748    1.537019 H         1 <1>         0.031285 
     16 H           1.970333    2.191260    0.854082 H         1 <1>         0.031285 
     17 H           0.618917   -0.035095   -0.796187 H         1 <1>         0.031044 
     18 H           1.649089    1.239591   -1.457514 H         1 <1>         0.031044 
     19 H          -1.071712   -0.054011    1.062700 H         1 <1>         0.031141 
     20 H          -2.509572    0.774646    1.688118 H         1 <1>         0.031141 
     21 H          -2.162007    2.718709    0.115796 H         1 <1>         0.057165 
     22 H          -3.559106    0.675780   -0.590338 H         1 <1>         0.034442 
     23 H          -2.080365   -0.087300   -1.241061 H         1 <1>         0.034442 
     24 H           3.653883    0.432828   -0.311973 H         1 <1>         0.057155 
     25 H           0.952983    3.776074   -1.010900 H         1 <1>         0.027436 
     26 H           0.698017    4.379637    0.653933 H         1 <1>         0.027436 
     27 H          -0.641916    4.387741   -0.518760 H         1 <1>         0.027436 
     28 H           4.146725   -2.463775    1.407116 H         1 <1>         0.027427 
     29 H           4.221581   -2.999848   -0.298134 H         1 <1>         0.027427 
     30 H           4.983772   -1.467376    0.190829 H         1 <1>         0.027427 
     31 H           0.786537   -1.804248    0.815142 H         1 <1>         0.027427 
     32 H           1.173412   -2.555831   -0.769592 H         1 <1>         0.027427 
     33 H           1.797567   -3.257538    0.747345 H         1 <1>         0.027427 
     34 H          -3.623465   -2.160776   -1.927465 H         1 <1>         0.030578 
     35 H          -5.056467   -1.430454   -1.134163 H         1 <1>         0.030578 
     36 H          -4.451064   -3.025455   -0.598612 H         1 <1>         0.030578 
@<TRIPOS>BOND
     1   11    1 2    
     2    3    2 1    
     3    2    4 1    
     4    2   15 1    
     5    2   16 1    
     6    6    3 2    
     7    3    9 1    
     8    4    8 1    
     9    4   17 1    
    10    4   18 1    
    11    5    6 1    
    12    7    5 1    
    13    5   19 1    
    14    5   20 1    
    15    6   21 1    
    16    7   11 1    
    17    7   22 1    
    18    7   23 1    
    19    8   10 2    
    20    8   24 1    
    21    9   25 1    
    22    9   26 1    
    23    9   27 1    
    24   10   12 1    
    25   10   13 1    
    26   11   14 1    
    27   12   28 1    
    28   12   29 1    
    29   12   30 1    
    30   13   31 1    
    31   13   32 1    
    32   13   33 1    
    33   14   34 1    
    34   14   35 1    
    35   14   36 1    
@<TRIPOS>SUBSTRUCTURE
     1 ****        2 TEMP              0 ****  ****    0 ROOT 
@<TRIPOS>NORMAL
@<TRIPOS>FF_PBC
FORCE_FIELD_SETUP_FEATURE Force Field Setup information
v1.0  0 0.000000 0.000000 0.000000 0.000000 0.000000 0.000000 NONE 0 0 0 0 1 0 0 0 0 0 0 0 0
