@<TRIPOS>MOLECULE
MOL003537
   42    43     1     1     0
SMALL
GASTEIGER


@<TRIPOS>ATOM
      1 C           0.951577   -2.195244   -0.392639 C.3       1 <1>         0.066683 
      2 C           1.856091   -1.651072    0.735009 C.3       1 <1>        -0.023706 
      3 C           2.141891   -0.145195    0.507898 C.3       1 <1>        -0.046837 
      4 C           0.915154    0.799020    0.248548 C.3       1 <1>        -0.032002 
      5 C          -0.148607    0.112608   -0.685858 C.3       1 <1>        -0.014167 
      6 C          -1.527157    0.762483   -0.685867 C.2       1 <1>        -0.081307 
      7 C          -2.622733    0.307447   -0.058784 C.2       1 <1>        -0.076238 
      8 C          -2.634185   -0.974865    0.735006 C.3       1 <1>        -0.031637 
      9 C          -1.211644   -1.547118    0.936577 C.3       1 <1>        -0.043385 
     10 C          -0.389765   -1.399829   -0.376323 C.3       1 <1>        -0.005587 
     11 O           1.634825   -1.965506   -1.641365 O.3       1 <1>        -0.388553 
     12 C           1.489389    2.177163   -0.279790 C.3       1 <1>        -0.043343 
     13 C           0.429707    3.218666   -0.741298 C.3       1 <1>        -0.062396 
     14 C           2.418833    2.869452    0.767926 C.3       1 <1>        -0.062396 
     15 C          -3.948535    1.038634   -0.119397 C.3       1 <1>        -0.043778 
     16 C           0.769134   -3.734824   -0.245637 C.3       1 <1>        -0.035799 
     17 H           2.816427   -2.197265    0.718263 H         1 <1>         0.029291 
     18 H           1.410364   -1.825933    1.726432 H         1 <1>         0.029291 
     19 H           2.697000    0.175703    1.402480 H         1 <1>         0.026908 
     20 H           2.820402   -0.086587   -0.357684 H         1 <1>         0.026908 
     21 H           0.414354    0.993384    1.208910 H         1 <1>         0.030901 
     22 H           0.251879    0.178220   -1.709343 H         1 <1>         0.034935 
     23 H          -1.683507    1.669755   -1.254200 H         1 <1>         0.057450 
     24 H          -3.245306   -1.696338    0.169975 H         1 <1>         0.031000 
     25 H          -3.119975   -0.817174    1.711758 H         1 <1>         0.031000 
     26 H          -1.313176   -2.596292    1.248725 H         1 <1>         0.027203 
     27 H          -0.746550   -0.997130    1.764829 H         1 <1>         0.027203 
     28 H          -1.008453   -1.823415   -1.187921 H         1 <1>         0.033419 
     29 H           1.147962   -2.269021   -2.400585 H         1 <1>         0.210159 
     30 H           2.111821    1.989796   -1.173250 H         1 <1>         0.029832 
     31 H           0.037509    2.944612   -1.730286 H         1 <1>         0.023242 
     32 H           0.864099    4.220280   -0.876041 H         1 <1>         0.023242 
     33 H          -0.382821    3.301217   -0.003591 H         1 <1>         0.023242 
     34 H           3.332874    2.295507    0.968590 H         1 <1>         0.023242 
     35 H           2.762962    3.849705    0.405327 H         1 <1>         0.023242 
     36 H           1.876564    3.024387    1.713243 H         1 <1>         0.023242 
     37 H          -3.915937    1.952685   -0.729971 H         1 <1>         0.027436 
     38 H          -4.256509    1.323471    0.897022 H         1 <1>         0.027436 
     39 H          -4.716443    0.375876   -0.544177 H         1 <1>         0.027436 
     40 H           0.470300   -4.020758    0.772666 H         1 <1>         0.025730 
     41 H           1.723844   -4.236961   -0.464616 H         1 <1>         0.025730 
     42 H           0.015561   -4.105561   -0.957241 H         1 <1>         0.025730 
@<TRIPOS>BOND
     1    1    2 1    
     2    1   10 1    
     3    1   11 1    
     4    1   16 1    
     5    2    3 1    
     6    2   17 1    
     7    2   18 1    
     8    3    4 1    
     9    3   19 1    
    10    3   20 1    
    11    4    5 1    
    12    4   12 1    
    13    4   21 1    
    14    5    6 1    
    15    5   10 1    
    16    5   22 1    
    17    6    7 2    
    18    6   23 1    
    19    7    8 1    
    20    7   15 1    
    21    8    9 1    
    22    8   24 1    
    23    8   25 1    
    24    9   10 1    
    25    9   26 1    
    26    9   27 1    
    27   10   28 1    
    28   11   29 1    
    29   12   13 1    
    30   12   14 1    
    31   12   30 1    
    32   13   31 1    
    33   13   32 1    
    34   13   33 1    
    35   14   34 1    
    36   14   35 1    
    37   14   36 1    
    38   15   37 1    
    39   15   38 1    
    40   15   39 1    
    41   16   40 1    
    42   16   41 1    
    43   16   42 1    
@<TRIPOS>SUBSTRUCTURE
     1 ****        1 TEMP              0 ****  ****    0 ROOT 
@<TRIPOS>NORMAL
@<TRIPOS>FF_PBC
FORCE_FIELD_SETUP_FEATURE Force Field Setup information
v1.0  0 0.000000 0.000000 0.000000 0.000000 0.000000 0.000000 NONE 0 0 0 0 1 0 0 0 0 0 0 0 0
