@<TRIPOS>MOLECULE
MOL001661
   52    54     1     1     0
SMALL
GASTEIGER


@<TRIPOS>ATOM
      1 O           0.796641    0.539069    1.055525 O.3       1 <1>        -0.319113 
      2 O          -0.810814    1.789104   -0.041604 O.3       1 <1>        -0.321653 
      3 O           2.152009   -0.207550   -0.641389 O.3       1 <1>        -0.340431 
      4 O          -4.245600   -2.004527   -0.454069 O.3       1 <1>        -0.387133 
      5 O           2.891824    2.329892    1.973769 O.3       1 <1>        -0.384103 
      6 O           5.551598    1.443326    1.184095 O.3       1 <1>        -0.386401 
      7 O           5.733689    0.353931   -1.513212 O.3       1 <1>        -0.386488 
      8 O          -0.566090   -1.794452    3.613111 O.3       1 <1>        -0.390723 
      9 O          -5.447435    0.611154   -0.333059 O.3       1 <1>        -0.314939 
     10 O           2.197769   -1.449642   -3.178882 O.3       1 <1>        -0.392366 
     11 O          -4.578508    2.217964   -1.620604 O.2       1 <1>        -0.259506 
     12 C          -1.482459   -0.196508    1.262448 C.3       1 <1>         0.043562 
     13 C          -2.857490   -0.167006    0.558143 C.3       1 <1>         0.032469 
     14 C          -0.441026    0.449810    0.329086 C.3       1 <1>         0.174414 
     15 C          -2.923198   -1.468759   -0.289376 C.3       1 <1>         0.081411 
     16 C          -1.251623   -1.680953    1.336842 C.2       1 <1>        -0.037429 
     17 C          -2.024867   -2.375696    0.500761 C.2       1 <1>        -0.053458 
     18 C          -3.059490    1.083987   -0.257137 C.2       1 <1>         0.053244 
     19 C           1.909884    0.913482    0.228854 C.3       1 <1>         0.190802 
     20 C           3.124452    1.163543    1.158453 C.3       1 <1>         0.134212 
     21 C           4.406743    1.366959    0.312294 C.3       1 <1>         0.114063 
     22 C           4.576704    0.180056   -0.672662 C.3       1 <1>         0.111896 
     23 C           3.285584   -0.020023   -1.508991 C.3       1 <1>         0.113007 
     24 C          -0.216301   -2.223841    2.286064 C.3       1 <1>         0.065815 
     25 C          -2.068146    1.959989   -0.487650 C.2       1 <1>         0.052366 
     26 C           3.395178   -1.284309   -2.398784 C.3       1 <1>         0.073015 
     27 C          -4.416066    1.341182   -0.784816 C.2       1 <1>         0.291816 
     28 C          -6.716039    0.936838   -0.935711 C.3       1 <1>         0.046187 
     29 H          -1.500271    0.311996    2.240358 H         1 <1>         0.040256 
     30 H          -3.627638   -0.220147    1.345986 H         1 <1>         0.038701 
     31 H          -0.336090   -0.163988   -0.582606 H         1 <1>         0.092074 
     32 H          -2.485295   -1.322065   -1.289689 H         1 <1>         0.064386 
     33 H          -2.012087   -3.459322    0.387444 H         1 <1>         0.059804 
     34 H           1.691979    1.839914   -0.330296 H         1 <1>         0.093840 
     35 H           3.269317    0.275148    1.796620 H         1 <1>         0.067096 
     36 H           4.300016    2.310629   -0.249255 H         1 <1>         0.064758 
     37 H           4.748728   -0.726949   -0.071261 H         1 <1>         0.064673 
     38 H           3.117781    0.846591   -2.169580 H         1 <1>         0.064668 
     39 H          -0.192261   -3.325001    2.231220 H         1 <1>         0.060400 
     40 H           0.773616   -1.837943    1.992478 H         1 <1>         0.060400 
     41 H          -2.251203    2.882079   -1.039722 H         1 <1>         0.089059 
     42 H          -4.680494   -2.190535    0.371648 H         1 <1>         0.210232 
     43 H           4.246168   -1.190155   -3.091574 H         1 <1>         0.058370 
     44 H           3.558926   -2.174367   -1.768001 H         1 <1>         0.058370 
     45 H           2.107668    2.241825    2.508631 H         1 <1>         0.210110 
     46 H           6.367338    1.556404    0.705021 H         1 <1>         0.210005 
     47 H           5.689120    1.126532   -2.067811 H         1 <1>         0.210004 
     48 H           0.052944   -2.088891    4.274691 H         1 <1>         0.209834 
     49 H           1.423719   -1.523649   -2.627304 H         1 <1>         0.209508 
     50 H          -6.701424    0.746172   -2.020985 H         1 <1>         0.052972 
     51 H          -7.480150    0.289656   -0.480018 H         1 <1>         0.052972 
     52 H          -6.995031    1.986644   -0.749500 H         1 <1>         0.052972 
@<TRIPOS>BOND
     1    1   14 1    
     2   19    1 1    
     3   14    2 1    
     4    2   25 1    
     5    3   19 1    
     6   23    3 1    
     7   15    4 1    
     8    4   42 1    
     9   20    5 1    
    10    5   45 1    
    11   21    6 1    
    12    6   46 1    
    13   22    7 1    
    14    7   47 1    
    15   24    8 1    
    16    8   48 1    
    17   27    9 1    
    18    9   28 1    
    19   26   10 1    
    20   10   49 1    
    21   27   11 2    
    22   12   13 1    
    23   14   12 1    
    24   12   16 1    
    25   12   29 1    
    26   13   15 1    
    27   13   18 1    
    28   13   30 1    
    29   14   31 1    
    30   17   15 1    
    31   15   32 1    
    32   16   17 2    
    33   16   24 1    
    34   17   33 1    
    35   25   18 2    
    36   18   27 1    
    37   19   20 1    
    38   19   34 1    
    39   21   20 1    
    40   20   35 1    
    41   22   21 1    
    42   21   36 1    
    43   23   22 1    
    44   22   37 1    
    45   23   26 1    
    46   23   38 1    
    47   24   39 1    
    48   24   40 1    
    49   25   41 1    
    50   26   43 1    
    51   26   44 1    
    52   28   50 1    
    53   28   51 1    
    54   28   52 1    
@<TRIPOS>SUBSTRUCTURE
     1 ****       12 TEMP              0 ****  ****    0 ROOT 
@<TRIPOS>NORMAL
@<TRIPOS>FF_PBC
FORCE_FIELD_SETUP_FEATURE Force Field Setup information
v1.0  0 0.000000 0.000000 0.000000 0.000000 0.000000 0.000000 NONE 0 0 0 0 1 0 0 0 0 0 0 0 0
