@<TRIPOS>MOLECULE
MOL001933
   63    68     1     1     0
SMALL
GASTEIGER


@<TRIPOS>ATOM
      1 O           2.541482   -0.347572   -3.099079 O.3       1 <1>        -0.341257 
      2 O           3.528667   -2.293861   -2.257992 O.3       1 <1>        -0.319183 
      3 O          -0.554822   -0.370403   -1.217463 O.3       1 <1>        -0.338511 
      4 O           2.315461   -4.349898   -2.007882 O.3       1 <1>        -0.364049 
      5 O           3.759802   -0.611389    1.015861 O.3       1 <1>        -0.310595 
      6 O          -2.247705    0.701724   -1.694742 O.3       1 <1>        -0.340511 
      7 O          -1.917551   -0.277956    1.051316 O.3       1 <1>        -0.384104 
      8 O          -1.920761    3.413107    0.403369 O.3       1 <1>        -0.386401 
      9 O           3.837485   -2.326309    2.400917 O.2       1 <1>        -0.259226 
     10 O          -4.380805    0.635204    0.383059 O.3       1 <1>        -0.386488 
     11 O          -4.121966    3.829018   -2.518880 O.3       1 <1>        -0.392366 
     12 O          -0.691263    1.217171    5.474043 O.3       1 <1>        -0.359832 
     13 C           2.265448   -0.807655   -0.875117 C.3       1 <1>         0.085034 
     14 C           0.833874   -0.653869   -1.498676 C.3       1 <1>         0.114556 
     15 C           1.971669   -2.307404   -0.677929 C.3       1 <1>         0.031032 
     16 C           1.214309   -0.884936   -2.987913 C.3       1 <1>         0.104258 
     17 C           0.506513   -1.941519   -0.649055 C.3       1 <1>        -0.011576 
     18 C           2.268571   -2.922545   -2.070364 C.3       1 <1>         0.176637 
     19 C           3.302090   -0.891715   -2.021431 C.3       1 <1>         0.174031 
     20 C           1.355614   -2.408425   -3.232251 C.3       1 <1>         0.033329 
     21 C           2.714827    0.090073    0.302191 C.3       1 <1>         0.070836 
     22 C           0.345503   -0.094848   -3.998520 C.3       1 <1>        -0.032789 
     23 C          -1.054629    0.929323   -0.921835 C.3       1 <1>         0.188670 
     24 C          -1.413318    0.999549    0.591408 C.3       1 <1>         0.134133 
     25 C           3.341389   -1.245789    2.118459 C.2       1 <1>         0.293831 
     26 C          -2.451580    2.136509    0.798269 C.3       1 <1>         0.114062 
     27 C          -3.306429    1.665305   -1.540445 C.3       1 <1>         0.113005 
     28 C          -3.712836    1.841947   -0.052395 C.3       1 <1>         0.111896 
     29 C           2.298823   -0.637987    3.023577 C.ar      1 <1>         0.046631 
     30 C          -2.992569    2.948437   -2.362253 C.3       1 <1>         0.073015 
     31 C           1.119716   -1.412754    3.469391 C.ar      1 <1>        -0.046445 
     32 C           2.461158    0.703587    3.432415 C.ar      1 <1>        -0.046445 
     33 C           0.143793   -0.793498    4.272174 C.ar      1 <1>        -0.031201 
     34 C           1.440553    1.346809    4.292024 C.ar      1 <1>        -0.031201 
     35 C           0.300148    0.621409    4.689715 C.ar      1 <1>         0.072621 
     36 H           2.433126   -2.830938    0.170828 H         1 <1>         0.036223 
     37 H          -0.179124   -2.699764   -1.056158 H         1 <1>         0.029866 
     38 H           0.255007   -1.760262    0.416877 H         1 <1>         0.029866 
     39 H           4.263141   -0.374810   -1.874091 H         1 <1>         0.091844 
     40 H           0.374922   -2.901772   -3.239252 H         1 <1>         0.034596 
     41 H           1.838528   -2.616918   -4.200459 H         1 <1>         0.034596 
     42 H           3.192066    0.985154   -0.128958 H         1 <1>         0.057419 
     43 H           1.835702    0.435535    0.861420 H         1 <1>         0.057419 
     44 H           0.680337   -0.316739   -5.023052 H         1 <1>         0.025826 
     45 H           0.480953    0.985950   -3.815414 H         1 <1>         0.025826 
     46 H          -0.720790   -0.346227   -3.900001 H         1 <1>         0.025826 
     47 H           1.476244   -4.705039   -1.727240 H         1 <1>         0.212768 
     48 H          -0.452979    1.770583   -1.303346 H         1 <1>         0.093762 
     49 H          -0.502218    1.227993    1.163365 H         1 <1>         0.067095 
     50 H          -2.743357    2.186801    1.859975 H         1 <1>         0.064758 
     51 H          -4.179419    1.216769   -2.038880 H         1 <1>         0.064668 
     52 H          -4.432742    2.673877    0.049375 H         1 <1>         0.064673 
     53 H          -2.154743   -0.302686    1.973083 H         1 <1>         0.210110 
     54 H          -2.121198    3.498587   -1.981875 H         1 <1>         0.058370 
     55 H          -2.744821    2.612494   -3.381896 H         1 <1>         0.058370 
     56 H          -1.138290    3.672975    0.881863 H         1 <1>         0.210005 
     57 H          -4.676835    0.651457    1.289616 H         1 <1>         0.210004 
     58 H           1.012845   -2.451534    3.175305 H         1 <1>         0.062606 
     59 H           3.335577    1.264699    3.115946 H         1 <1>         0.062606 
     60 H          -4.378181    4.266763   -1.714158 H         1 <1>         0.209508 
     61 H          -0.731304   -1.345048    4.593380 H         1 <1>         0.064340 
     62 H           1.579964    2.377682    4.597059 H         1 <1>         0.064340 
     63 H          -0.397354    1.991666    5.938655 H         1 <1>         0.217313 
@<TRIPOS>BOND
     1    1   16 1    
     2   19    1 1    
     3    2   18 1    
     4   19    2 1    
     5   14    3 1    
     6    3   23 1    
     7   18    4 1    
     8    4   47 1    
     9    5   21 1    
    10   25    5 1    
    11   23    6 1    
    12    6   27 1    
    13   24    7 1    
    14    7   53 1    
    15   26    8 1    
    16    8   56 1    
    17   25    9 2    
    18   28   10 1    
    19   10   57 1    
    20   30   11 1    
    21   11   60 1    
    22   35   12 1    
    23   12   63 1    
    24   13   14 1    
    25   13   15 1    
    26   13   19 1    
    27   21   13 1    
    28   14   16 1    
    29   14   17 1    
    30   15   17 1    
    31   15   18 1    
    32   15   36 1    
    33   16   20 1    
    34   16   22 1    
    35   17   37 1    
    36   17   38 1    
    37   18   20 1    
    38   19   39 1    
    39   20   40 1    
    40   20   41 1    
    41   21   42 1    
    42   21   43 1    
    43   22   44 1    
    44   22   45 1    
    45   22   46 1    
    46   23   24 1    
    47   23   48 1    
    48   24   26 1    
    49   24   49 1    
    50   29   25 1    
    51   26   28 1    
    52   26   50 1    
    53   27   28 1    
    54   27   30 1    
    55   27   51 1    
    56   28   52 1    
    57   31   29 1    
    58   29   32 2    
    59   30   54 1    
    60   30   55 1    
    61   33   31 2    
    62   31   58 1    
    63   32   34 1    
    64   32   59 1    
    65   33   35 1    
    66   33   61 1    
    67   34   35 2    
    68   34   62 1    
@<TRIPOS>SUBSTRUCTURE
     1 ****        3 TEMP              0 ****  ****    0 ROOT 
@<TRIPOS>NORMAL
@<TRIPOS>FF_PBC
FORCE_FIELD_SETUP_FEATURE Force Field Setup information
v1.0  0 0.000000 0.000000 0.000000 0.000000 0.000000 0.000000 NONE 0 0 0 0 1 0 0 0 0 0 0 0 0
