@<TRIPOS>MOLECULE
MOL001696
   55    58     1     1     0
SMALL
GASTEIGER


@<TRIPOS>ATOM
      1 O           5.334455    0.760811    0.630386 O.3       1 <1>        -0.334041 
      2 C           4.041434    1.225212    0.400734 C.ar      1 <1>         0.089359 
      3 C           2.943814    0.251126    0.220890 C.ar      1 <1>         0.036119 
      4 C           3.315793   -1.210309    0.287578 C.2       1 <1>        -0.050857 
      5 C           4.609162   -1.535180    0.179255 C.2       1 <1>        -0.051916 
      6 C           5.663161   -0.469009   -0.045779 C.3       1 <1>         0.088838 
      7 C           3.782655    2.600710    0.349476 C.ar      1 <1>        -0.000422 
      8 C           2.404263    3.092337    0.118365 C.ar      1 <1>         0.088369 
      9 C           1.351946    2.144759   -0.033325 C.ar      1 <1>         0.082813 
     10 C           1.623736    0.697803    0.002360 C.ar      1 <1>         0.105962 
     11 C          -0.092023    2.515491   -0.231502 C.2       1 <1>         0.196974 
     12 C          -1.099007    1.436045   -0.243818 C.2       1 <1>         0.034820 
     13 C          -0.705394    0.147201   -0.256793 C.2       1 <1>         0.099817 
     14 O           0.586991   -0.217097   -0.182214 O.3       1 <1>        -0.306755 
     15 C          -2.564289    1.837782   -0.210792 C.3       1 <1>        -0.003097 
     16 C          -3.380058    0.920696    0.674700 C.2       1 <1>        -0.080777 
     17 C          -1.646716   -2.009976    0.755544 C.ar      1 <1>        -0.047198 
     18 C          -1.693746   -0.996188   -0.324552 C.ar      1 <1>         0.035716 
     19 C          -4.628643    0.486812    0.436068 C.2       1 <1>        -0.079305 
     20 C          -5.291322   -0.523398    1.348806 C.3       1 <1>        -0.044040 
     21 C          -2.586264   -3.056820    0.788919 C.ar      1 <1>        -0.031141 
     22 C          -3.625058   -3.157526   -0.267885 C.ar      1 <1>         0.075056 
     23 C          -3.642613   -2.224310   -1.307922 C.ar      1 <1>        -0.001507 
     24 C          -2.651502   -1.126387   -1.361903 C.ar      1 <1>         0.084630 
     25 O          -2.685196   -0.237702   -2.436099 O.3       1 <1>        -0.359078 
     26 O          -4.586509   -4.168635   -0.241076 O.3       1 <1>        -0.359750 
     27 C           7.037262   -0.930435    0.506447 C.3       1 <1>        -0.031936 
     28 C           5.762097   -0.191261   -1.569456 C.3       1 <1>        -0.031936 
     29 O           2.167331    4.468175    0.063038 O.3       1 <1>        -0.358955 
     30 O          -0.397086    3.690440   -0.370883 O.2       1 <1>        -0.286716 
     31 C          -5.464557    0.945330   -0.738327 C.3       1 <1>        -0.044040 
     32 H           2.543188   -1.968174    0.418214 H         1 <1>         0.062283 
     33 H           4.903728   -2.584248    0.230870 H         1 <1>         0.060053 
     34 H           4.593814    3.306227    0.483226 H         1 <1>         0.066951 
     35 H          -2.671119    2.840353    0.230644 H         1 <1>         0.035759 
     36 H          -2.919267    1.891674   -1.248393 H         1 <1>         0.035759 
     37 H          -2.877720    0.586036    1.582391 H         1 <1>         0.057473 
     38 H          -0.881909   -1.938908    1.522053 H         1 <1>         0.062584 
     39 H          -6.187700   -0.083657    1.810913 H         1 <1>         0.027427 
     40 H          -5.596561   -1.397069    0.752837 H         1 <1>         0.027427 
     41 H          -4.632652   -0.880255    2.154102 H         1 <1>         0.027427 
     42 H          -2.545696   -3.788605    1.589282 H         1 <1>         0.064341 
     43 H          -4.393836   -2.296558   -2.084594 H         1 <1>         0.066921 
     44 H          -1.815336    0.000540   -2.736203 H         1 <1>         0.217340 
     45 H          -4.555624   -4.703490    0.544261 H         1 <1>         0.217315 
     46 H           6.952571   -1.143603    1.582689 H         1 <1>         0.026052 
     47 H           7.787887   -0.137407    0.366822 H         1 <1>         0.026052 
     48 H           7.385248   -1.839129   -0.007748 H         1 <1>         0.026052 
     49 H           6.491645    0.610713   -1.761395 H         1 <1>         0.026052 
     50 H           6.079300   -1.098158   -2.105801 H         1 <1>         0.026052 
     51 H           4.786729    0.125434   -1.969316 H         1 <1>         0.026052 
     52 H           1.264785    4.693386   -0.145638 H         1 <1>         0.217342 
     53 H          -5.208886    1.961235   -1.066103 H         1 <1>         0.027427 
     54 H          -5.340445    0.251693   -1.582121 H         1 <1>         0.027427 
     55 H          -6.528103    0.965791   -0.458719 H         1 <1>         0.027427 
@<TRIPOS>BOND
     1    1    2 1    
     2    1    6 1    
     3    2    3 1    
     4    2    7 2    
     5    3    4 1    
     6    3   10 2    
     7    4    5 2    
     8    4   32 1    
     9    5    6 1    
    10    5   33 1    
    11    6   27 1    
    12    6   28 1    
    13    7    8 1    
    14    7   34 1    
    15    8    9 2    
    16    8   29 1    
    17    9   10 1    
    18    9   11 1    
    19   10   14 1    
    20   11   12 1    
    21   11   30 2    
    22   12   13 2    
    23   12   15 1    
    24   13   14 1    
    25   13   18 1    
    26   15   16 1    
    27   15   35 1    
    28   15   36 1    
    29   16   19 2    
    30   16   37 1    
    31   18   17 1    
    32   17   21 2    
    33   17   38 1    
    34   18   24 2    
    35   19   20 1    
    36   19   31 1    
    37   20   39 1    
    38   20   40 1    
    39   20   41 1    
    40   21   22 1    
    41   21   42 1    
    42   22   23 2    
    43   22   26 1    
    44   23   24 1    
    45   23   43 1    
    46   24   25 1    
    47   25   44 1    
    48   26   45 1    
    49   27   46 1    
    50   27   47 1    
    51   27   48 1    
    52   28   49 1    
    53   28   50 1    
    54   28   51 1    
    55   29   52 1    
    56   31   53 1    
    57   31   54 1    
    58   31   55 1    
@<TRIPOS>SUBSTRUCTURE
     1 ****        1 TEMP              0 ****  ****    0 ROOT 
@<TRIPOS>NORMAL
@<TRIPOS>FF_PBC
FORCE_FIELD_SETUP_FEATURE Force Field Setup information
v1.0  0 0.000000 0.000000 0.000000 0.000000 0.000000 0.000000 NONE 0 0 0 0 1 0 0 0 0 0 0 0 0
