@<TRIPOS>MOLECULE
MOL002204
   53    52     1     1     0
SMALL
GASTEIGER


@<TRIPOS>ATOM
      1 C          -1.021206    3.143926   -0.165001 C.2       1 <1>        -0.087640 
      2 C           0.071793    3.827129    0.208204 C.2       1 <1>        -0.084202 
      3 C          -1.129044    1.636044   -0.202051 C.3       1 <1>        -0.034751 
      4 C           1.390623    3.209566    0.620357 C.3       1 <1>        -0.016545 
      5 C          -2.610680    1.173601   -0.142418 C.3       1 <1>        -0.049616 
      6 C           2.559082    4.075870    0.202187 C.2       1 <1>        -0.084202 
      7 C          -2.731023   -0.375208   -0.155439 C.3       1 <1>        -0.052779 
      8 C           3.769408    3.623601   -0.160541 C.2       1 <1>        -0.087640 
      9 C          -4.216826   -0.822534   -0.078624 C.3       1 <1>        -0.053047 
     10 C           4.181867    2.169009   -0.178734 C.3       1 <1>        -0.034751 
     11 C          -4.348505   -2.370224   -0.091269 C.3       1 <1>        -0.052986 
     12 C           5.723631    2.015467   -0.067527 C.3       1 <1>        -0.049624 
     13 C          -5.834866   -2.810152    0.010959 C.3       1 <1>        -0.050987 
     14 C           6.151397    0.522063   -0.074421 C.3       1 <1>        -0.053028 
     15 C          -5.970198   -4.357417   -0.001973 C.3       1 <1>        -0.029718 
     16 C           7.692985    0.376123    0.045742 C.3       1 <1>        -0.055902 
     17 C          -7.449563   -4.802689    0.116951 C.3       1 <1>         0.044206 
     18 C           8.122160   -1.114158    0.030338 C.3       1 <1>        -0.065276 
     19 O          -7.493313   -6.240812    0.096466 O.3       1 <1>        -0.395007 
     20 H          -1.899853    3.719569   -0.464144 H         1 <1>         0.056905 
     21 H          -0.002457    4.916413    0.218749 H         1 <1>         0.057203 
     22 H          -0.666611    1.273309   -1.133628 H         1 <1>         0.030732 
     23 H          -0.597953    1.194534    0.656119 H         1 <1>         0.030732 
     24 H           1.489744    2.206245    0.184276 H         1 <1>         0.034961 
     25 H           1.401622    3.125403    1.717657 H         1 <1>         0.034961 
     26 H          -3.071704    1.569130    0.778203 H         1 <1>         0.026822 
     27 H          -3.156789    1.584978   -1.007566 H         1 <1>         0.026822 
     28 H           2.411828    5.157768    0.198419 H         1 <1>         0.057203 
     29 H          -2.276329   -0.768524   -1.079696 H         1 <1>         0.026538 
     30 H          -2.181257   -0.792140    0.704412 H         1 <1>         0.026538 
     31 H           4.514502    4.361274   -0.466272 H         1 <1>         0.056905 
     32 H          -4.666471   -0.427379    0.847115 H         1 <1>         0.026529 
     33 H          -4.768920   -0.403903   -0.936395 H         1 <1>         0.026529 
     34 H           3.833178    1.719321   -1.121908 H         1 <1>         0.030732 
     35 H           3.724508    1.628611    0.664898 H         1 <1>         0.030732 
     36 H          -3.913005   -2.765676   -1.023693 H         1 <1>         0.026529 
     37 H          -3.785771   -2.790979    0.758322 H         1 <1>         0.026529 
     38 H           6.064952    2.491013    0.867074 H         1 <1>         0.026822 
     39 H           6.205054    2.531899   -0.914608 H         1 <1>         0.026822 
     40 H          -6.267168   -2.415686    0.945422 H         1 <1>         0.026599 
     41 H          -6.399873   -2.387979   -0.836252 H         1 <1>         0.026599 
     42 H           5.812128    0.050754   -1.011627 H         1 <1>         0.026529 
     43 H           5.671113   -0.001192    0.768834 H         1 <1>         0.026529 
     44 H          -5.553266   -4.760061   -0.939692 H         1 <1>         0.028724 
     45 H          -5.403469   -4.788730    0.839453 H         1 <1>         0.028724 
     46 H           8.035059    0.839578    0.986334 H         1 <1>         0.026265 
     47 H           8.180651    0.899421   -0.793649 H         1 <1>         0.026265 
     48 H          -7.876107   -4.422206    1.060962 H         1 <1>         0.055696 
     49 H          -8.029442   -4.391298   -0.727248 H         1 <1>         0.055696 
     50 H           9.217432   -1.194031    0.119360 H         1 <1>         0.022978 
     51 H           7.811778   -1.593582   -0.911039 H         1 <1>         0.022978 
     52 H           7.662339   -1.655664    0.871654 H         1 <1>         0.022978 
     53 H          -8.377262   -6.589392    0.166745 H         1 <1>         0.209395 
@<TRIPOS>BOND
     1    1    2 2    
     2    1    3 1    
     3    1   20 1    
     4    2    4 1    
     5    2   21 1    
     6    3    5 1    
     7    3   22 1    
     8    3   23 1    
     9    4    6 1    
    10    4   24 1    
    11    4   25 1    
    12    5    7 1    
    13    5   26 1    
    14    5   27 1    
    15    6    8 2    
    16    6   28 1    
    17    7    9 1    
    18    7   29 1    
    19    7   30 1    
    20    8   10 1    
    21    8   31 1    
    22    9   11 1    
    23    9   32 1    
    24    9   33 1    
    25   10   12 1    
    26   10   34 1    
    27   10   35 1    
    28   11   13 1    
    29   11   36 1    
    30   11   37 1    
    31   12   14 1    
    32   12   38 1    
    33   12   39 1    
    34   13   15 1    
    35   13   40 1    
    36   13   41 1    
    37   14   16 1    
    38   14   42 1    
    39   14   43 1    
    40   15   17 1    
    41   15   44 1    
    42   15   45 1    
    43   16   18 1    
    44   16   46 1    
    45   16   47 1    
    46   17   19 1    
    47   17   48 1    
    48   17   49 1    
    49   18   50 1    
    50   18   51 1    
    51   18   52 1    
    52   19   53 1    
@<TRIPOS>SUBSTRUCTURE
     1 ****        1 TEMP              0 ****  ****    0 ROOT 
@<TRIPOS>NORMAL
@<TRIPOS>FF_PBC
FORCE_FIELD_SETUP_FEATURE Force Field Setup information
v1.0  0 0.000000 0.000000 0.000000 0.000000 0.000000 0.000000 NONE 0 0 0 0 1 0 0 0 0 0 0 0 0
