@<TRIPOS>MOLECULE
MOL003595
   27    27     1     1     0
SMALL
GASTEIGER


@<TRIPOS>ATOM
      1 C           1.104125    0.719521   -0.453920 C.2       1 <1>        -0.078194 
      2 C           0.186965    1.692284   -0.537772 C.2       1 <1>        -0.056491 
      3 C          -1.299655    1.458781   -0.405091 C.3       1 <1>         0.081402 
      4 C          -1.641017   -0.046459   -0.587775 C.3       1 <1>        -0.019826 
      5 C          -0.697131   -0.902263    0.289195 C.3       1 <1>        -0.040177 
      6 C           0.761017   -0.729506   -0.207060 C.3       1 <1>        -0.002169 
      7 C           1.707149   -1.353383    0.798826 C.2       1 <1>        -0.072885 
      8 C           2.204961   -2.745762    0.483397 C.3       1 <1>        -0.043484 
      9 C           2.073418   -0.702099    1.911559 C.2       1 <1>        -0.099152 
     10 O          -1.639973    1.899075    0.920501 O.3       1 <1>        -0.384819 
     11 C          -2.066297    2.315900   -1.448799 C.3       1 <1>        -0.032444 
     12 H           2.158792    0.975104   -0.572877 H         1 <1>         0.057579 
     13 H           0.526419    2.716069   -0.700948 H         1 <1>         0.059727 
     14 H          -2.690596   -0.232010   -0.307808 H         1 <1>         0.029618 
     15 H          -1.512293   -0.338674   -1.642579 H         1 <1>         0.029618 
     16 H          -0.783569   -0.570648    1.336869 H         1 <1>         0.027493 
     17 H          -0.983901   -1.965935    0.240971 H         1 <1>         0.027493 
     18 H           0.873318   -1.224717   -1.185876 H         1 <1>         0.038785 
     19 H           2.803331   -2.721936   -0.439734 H         1 <1>         0.027446 
     20 H           1.346754   -3.418033    0.333924 H         1 <1>         0.027446 
     21 H           2.830351   -3.160791    1.288285 H         1 <1>         0.027446 
     22 H           2.754018   -1.145810    2.637188 H         1 <1>         0.053450 
     23 H           1.697965    0.297399    2.129645 H         1 <1>         0.053450 
     24 H          -2.566121    1.811203    1.118021 H         1 <1>         0.210579 
     25 H          -1.734722    2.066416   -2.468503 H         1 <1>         0.026037 
     26 H          -3.149277    2.134012   -1.375058 H         1 <1>         0.026037 
     27 H          -1.880733    3.385960   -1.269382 H         1 <1>         0.026037 
@<TRIPOS>BOND
     1    1    2 2    
     2    1    6 1    
     3    1   12 1    
     4    2    3 1    
     5    2   13 1    
     6    3    4 1    
     7    3   10 1    
     8    3   11 1    
     9    4    5 1    
    10    4   14 1    
    11    4   15 1    
    12    5    6 1    
    13    5   16 1    
    14    5   17 1    
    15    6    7 1    
    16    6   18 1    
    17    7    8 1    
    18    7    9 2    
    19    8   19 1    
    20    8   20 1    
    21    8   21 1    
    22    9   22 1    
    23    9   23 1    
    24   10   24 1    
    25   11   25 1    
    26   11   26 1    
    27   11   27 1    
@<TRIPOS>SUBSTRUCTURE
     1 ****        1 TEMP              0 ****  ****    0 ROOT 
@<TRIPOS>NORMAL
@<TRIPOS>FF_PBC
FORCE_FIELD_SETUP_FEATURE Force Field Setup information
v1.0  0 0.000000 0.000000 0.000000 0.000000 0.000000 0.000000 NONE 0 0 0 0 1 0 0 0 0 0 0 0 0
