@<TRIPOS>MOLECULE
MOL004695
  123   129     1     1     0
SMALL
GASTEIGER


@<TRIPOS>ATOM
      1 C           4.176520   -0.370051    2.400750 C.3       1 <1>         0.001211 
      2 C           4.264550    1.144375    2.530439 C.2       1 <1>        -0.041177 
      3 C           5.440020    1.825843    2.530370 C.2       1 <1>        -0.054572 
      4 C           2.786398   -0.920155    1.816759 C.3       1 <1>        -0.015850 
      5 C           6.836200    1.186763    2.417533 C.3       1 <1>         0.041279 
      6 C          -6.284167    0.732881   -1.543497 C.3       1 <1>         0.120486 
      7 C           0.070606   -0.644948    1.896306 C.3       1 <1>        -0.021728 
      8 C          -5.707577   -1.216209   -2.932755 C.3       1 <1>         0.188437 
      9 C          -4.681004    1.367627    0.310210 C.3       1 <1>         0.188127 
     10 C           1.505748   -0.292650    2.514991 C.3       1 <1>        -0.010741 
     11 C          -5.543137    1.908508   -0.864698 C.3       1 <1>         0.134483 
     12 C          -6.664573   -0.875645   -4.109677 C.3       1 <1>         0.134124 
     13 C           0.086678   -0.162463    0.402412 C.3       1 <1>        -0.025206 
     14 C          -1.290373   -0.193634   -0.375905 C.3       1 <1>         0.020641 
     15 C          -6.832083   -2.124526   -5.011767 C.3       1 <1>         0.114061 
     16 O          -5.266455   -0.078423   -2.168641 O.3       1 <1>        -0.340053 
     17 O          -4.445553   -1.701090   -3.425733 O.3       1 <1>        -0.340520 
     18 O          -5.491819    0.682199    1.288319 O.3       1 <1>        -0.343072 
     19 C           2.952141    1.812603    2.630939 C.2       1 <1>        -0.061680 
     20 C          -7.161014    0.051007   -0.458170 C.3       1 <1>         0.109842 
     21 C          -5.441738   -2.621588   -5.478119 C.3       1 <1>         0.111896 
     22 C           1.762166    1.200637    2.634529 C.2       1 <1>        -0.079573 
     23 C           5.381423   -0.701254    1.449319 C.3       1 <1>        -0.016023 
     24 C          -4.544011   -2.882481   -4.239655 C.3       1 <1>         0.113005 
     25 C           6.756746   -0.336516    2.048126 C.3       1 <1>         0.067441 
     26 C          -2.358292    0.576055    0.476048 C.3       1 <1>         0.069511 
     27 O          -3.616607    0.558273   -0.235555 O.3       1 <1>        -0.344807 
     28 C          -6.303299   -0.394018    0.763659 C.3       1 <1>         0.087317 
     29 C           2.666774   -0.534964    0.306633 C.3       1 <1>        -0.045983 
     30 C          -1.112853    0.082891    2.646399 C.3       1 <1>        -0.044437 
     31 C           7.608421    2.036091    1.331664 C.3       1 <1>        -0.038670 
     32 C           1.287337   -0.796805   -0.365312 C.3       1 <1>        -0.048508 
     33 C           5.519000    3.347576    2.563393 C.3       1 <1>        -0.025318 
     34 C           5.765843    3.821731    1.096222 C.3       1 <1>        -0.031141 
     35 C          -2.490335    0.027246    1.919988 C.3       1 <1>        -0.025376 
     36 O          -6.516346    2.886313   -0.433354 O.3       1 <1>        -0.384094 
     37 O          -6.148209    0.227757   -4.882111 O.3       1 <1>        -0.384104 
     38 O          -7.651430   -1.767042   -6.141744 O.3       1 <1>        -0.386401 
     39 C           6.654450    2.770909    0.348649 C.3       1 <1>        -0.046636 
     40 C           7.663829    1.273566    3.750100 C.3       1 <1>         0.055890 
     41 C           4.402552   -0.932140    3.842350 C.3       1 <1>        -0.054936 
     42 O          -7.942405   -1.020554   -1.026523 O.3       1 <1>        -0.386569 
     43 O          -5.639730   -3.828549   -6.239974 O.3       1 <1>        -0.386488 
     44 C          -1.175201    0.567007   -1.746600 C.3       1 <1>         0.052209 
     45 C           2.801031   -2.484426    1.966895 C.3       1 <1>        -0.058207 
     46 O           7.798927   -0.741465    1.133269 O.3       1 <1>        -0.390817 
     47 C          -0.265434   -2.173598    2.076248 C.3       1 <1>        -0.058735 
     48 C          -1.803546   -1.623371   -0.743978 C.3       1 <1>        -0.054821 
     49 C          -3.102627   -3.250911   -4.671648 C.3       1 <1>         0.073015 
     50 O           8.905496    0.561814    3.580110 O.3       1 <1>        -0.394059 
     51 O          -0.513632   -0.223828   -2.755458 O.3       1 <1>        -0.394374 
     52 O          -3.140935   -4.375280   -5.573481 O.3       1 <1>        -0.392366 
     53 C          -5.515926   -1.709599    0.532159 C.3       1 <1>        -0.036060 
     54 C           6.463519    5.216899    1.117863 C.3       1 <1>        -0.059522 
     55 C           4.412309    3.970849    0.338836 C.3       1 <1>        -0.059522 
     56 H          -6.932695    1.172637   -2.318010 H         1 <1>         0.065136 
     57 H          -6.150078   -1.986164   -2.283632 H         1 <1>         0.093753 
     58 H          -4.271715    2.261466    0.807984 H         1 <1>         0.093748 
     59 H           1.440612   -0.621183    3.560758 H         1 <1>         0.035395 
     60 H          -4.872449    2.366779   -1.613645 H         1 <1>         0.067105 
     61 H          -7.659623   -0.612639   -3.711394 H         1 <1>         0.067095 
     62 H           0.338470    0.908592    0.460261 H         1 <1>         0.031301 
     63 H          -7.323960   -2.929615   -4.437088 H         1 <1>         0.064758 
     64 H           2.877632    2.893247    2.709258 H         1 <1>         0.061744 
     65 H          -7.869516    0.819703   -0.097733 H         1 <1>         0.064594 
     66 H          -4.984725   -1.837757   -6.106188 H         1 <1>         0.064673 
     67 H           0.954904    1.914873    2.746440 H         1 <1>         0.057525 
     68 H           5.448170   -1.758193    1.172520 H         1 <1>         0.029895 
     69 H           5.315696   -0.133345    0.511981 H         1 <1>         0.029895 
     70 H          -4.957767   -3.725988   -3.661736 H         1 <1>         0.064668 
     71 H           6.904545   -0.961172    2.945668 H         1 <1>         0.060283 
     72 H          -2.014662    1.622888    0.540751 H         1 <1>         0.060308 
     73 H          -7.007694   -0.625933    1.581197 H         1 <1>         0.062075 
     74 H           3.399784   -1.102433   -0.288926 H         1 <1>         0.027105 
     75 H           2.892505    0.537934    0.195634 H         1 <1>         0.027105 
     76 H          -1.211369   -0.323286    3.666913 H         1 <1>         0.027158 
     77 H          -0.991022    1.161499    2.759405 H         1 <1>         0.027158 
     78 H           8.212676    2.827526    1.800003 H         1 <1>         0.027536 
     79 H           8.331860    1.445232    0.753033 H         1 <1>         0.027536 
     80 H           1.370125   -0.345115   -1.364580 H         1 <1>         0.026847 
     81 H           1.149533   -1.872382   -0.526347 H         1 <1>         0.026847 
     82 H           4.705136    3.911953    3.027809 H         1 <1>         0.031555 
     83 H           6.373109    3.648385    3.178642 H         1 <1>         0.031555 
     84 H          -3.204593    0.652136    2.482788 H         1 <1>         0.029048 
     85 H          -2.939958   -0.968164    1.897458 H         1 <1>         0.029048 
     86 H          -6.130038    3.660458   -0.035753 H         1 <1>         0.210111 
     87 H          -6.702751    0.423635   -5.632091 H         1 <1>         0.210110 
     88 H          -7.754681   -2.497302   -6.745991 H         1 <1>         0.210005 
     89 H           7.231230    3.264541   -0.450896 H         1 <1>         0.027081 
     90 H           6.034892    2.005408   -0.139839 H         1 <1>         0.027081 
     91 H           7.101155    0.832300    4.585231 H         1 <1>         0.056653 
     92 H           7.913700    2.300846    4.054989 H         1 <1>         0.056653 
     93 H           4.717809   -1.985345    3.817482 H         1 <1>         0.023839 
     94 H           5.168024   -0.375429    4.391558 H         1 <1>         0.023839 
     95 H           3.500816   -0.857153    4.460952 H         1 <1>         0.023839 
     96 H          -8.538908   -1.422136   -0.401438 H         1 <1>         0.210002 
     97 H          -4.810539   -4.217390   -6.510938 H         1 <1>         0.210004 
     98 H          -0.653927    1.529852   -1.615939 H         1 <1>         0.056334 
     99 H          -2.181664    0.788433   -2.142855 H         1 <1>         0.056334 
    100 H           3.758430   -2.960203    1.744413 H         1 <1>         0.023552 
    101 H           2.555320   -2.782017    2.995670 H         1 <1>         0.023552 
    102 H           2.120268   -2.990410    1.283732 H         1 <1>         0.023552 
    103 H           7.824194   -1.672536    0.935261 H         1 <1>         0.209815 
    104 H          -1.311673   -2.394839    2.307587 H         1 <1>         0.023534 
    105 H          -0.053556   -2.780989    1.192340 H         1 <1>         0.023534 
    106 H           0.262664   -2.594152    2.940152 H         1 <1>         0.023534 
    107 H          -1.035156   -2.206168   -1.268617 H         1 <1>         0.023667 
    108 H          -2.659035   -1.546448   -1.430463 H         1 <1>         0.023667 
    109 H          -2.142677   -2.210778    0.113233 H         1 <1>         0.023667 
    110 H          -2.645127   -2.377348   -5.166362 H         1 <1>         0.058370 
    111 H          -2.512448   -3.486300   -3.769022 H         1 <1>         0.058370 
    112 H           9.456117    0.551290    4.357744 H         1 <1>         0.209434 
    113 H          -0.447670    0.211231   -3.600733 H         1 <1>         0.209420 
    114 H          -2.271906   -4.650728   -5.853803 H         1 <1>         0.209508 
    115 H          -6.194939   -2.517597    0.220861 H         1 <1>         0.025536 
    116 H          -5.034479   -2.022167    1.469973 H         1 <1>         0.025536 
    117 H          -4.743669   -1.596035   -0.233192 H         1 <1>         0.025536 
    118 H           5.856096    5.937699    1.686730 H         1 <1>         0.023508 
    119 H           7.458358    5.162646    1.584326 H         1 <1>         0.023508 
    120 H           6.589818    5.607310    0.096309 H         1 <1>         0.023508 
    121 H           3.866175    3.016822    0.311705 H         1 <1>         0.023508 
    122 H           4.589686    4.289600   -0.699855 H         1 <1>         0.023508 
    123 H           3.770509    4.720999    0.825553 H         1 <1>         0.023508 
@<TRIPOS>BOND
     1    1    2 1    
     2    4    1 1    
     3    1   23 1    
     4    1   41 1    
     5    2    3 2    
     6   19    2 1    
     7    3    5 1    
     8    3   33 1    
     9   10    4 1    
    10    4   29 1    
    11    4   45 1    
    12   25    5 1    
    13    5   31 1    
    14    5   40 1    
    15   11    6 1    
    16    6   16 1    
    17    6   20 1    
    18    6   56 1    
    19    7   10 1    
    20   13    7 1    
    21    7   30 1    
    22    7   47 1    
    23    8   12 1    
    24   16    8 1    
    25    8   17 1    
    26    8   57 1    
    27    9   11 1    
    28    9   18 1    
    29   27    9 1    
    30    9   58 1    
    31   10   22 1    
    32   10   59 1    
    33   11   36 1    
    34   11   60 1    
    35   12   15 1    
    36   12   37 1    
    37   12   61 1    
    38   14   13 1    
    39   13   32 1    
    40   13   62 1    
    41   26   14 1    
    42   14   44 1    
    43   14   48 1    
    44   15   21 1    
    45   15   38 1    
    46   15   63 1    
    47   17   24 1    
    48   18   28 1    
    49   22   19 2    
    50   19   64 1    
    51   28   20 1    
    52   20   42 1    
    53   20   65 1    
    54   24   21 1    
    55   21   43 1    
    56   21   66 1    
    57   22   67 1    
    58   23   25 1    
    59   23   68 1    
    60   23   69 1    
    61   24   49 1    
    62   24   70 1    
    63   25   46 1    
    64   25   71 1    
    65   26   27 1    
    66   26   35 1    
    67   26   72 1    
    68   28   53 1    
    69   28   73 1    
    70   29   32 1    
    71   29   74 1    
    72   29   75 1    
    73   30   35 1    
    74   30   76 1    
    75   30   77 1    
    76   31   39 1    
    77   31   78 1    
    78   31   79 1    
    79   32   80 1    
    80   32   81 1    
    81   33   34 1    
    82   33   82 1    
    83   33   83 1    
    84   34   39 1    
    85   34   54 1    
    86   34   55 1    
    87   35   84 1    
    88   35   85 1    
    89   36   86 1    
    90   37   87 1    
    91   38   88 1    
    92   39   89 1    
    93   39   90 1    
    94   40   50 1    
    95   40   91 1    
    96   40   92 1    
    97   41   93 1    
    98   41   94 1    
    99   41   95 1    
   100   42   96 1    
   101   43   97 1    
   102   44   51 1    
   103   44   98 1    
   104   44   99 1    
   105   45  100 1    
   106   45  101 1    
   107   45  102 1    
   108   46  103 1    
   109   47  104 1    
   110   47  105 1    
   111   47  106 1    
   112   48  107 1    
   113   48  108 1    
   114   48  109 1    
   115   49   52 1    
   116   49  110 1    
   117   49  111 1    
   118   50  112 1    
   119   51  113 1    
   120   52  114 1    
   121   53  115 1    
   122   53  116 1    
   123   53  117 1    
   124   54  118 1    
   125   54  119 1    
   126   54  120 1    
   127   55  121 1    
   128   55  122 1    
   129   55  123 1    
@<TRIPOS>SUBSTRUCTURE
     1 ****        1 TEMP              0 ****  ****    0 ROOT 
@<TRIPOS>NORMAL
@<TRIPOS>FF_PBC
FORCE_FIELD_SETUP_FEATURE Force Field Setup information
v1.0  0 0.000000 0.000000 0.000000 0.000000 0.000000 0.000000 NONE 0 0 0 0 1 0 0 0 0 0 0 0 0
