@<TRIPOS>MOLECULE
MOL002115
   21    21     1     1     0
SMALL
GASTEIGER


@<TRIPOS>ATOM
      1 C           0.192867    0.631325   -0.167875 C.ar      1 <1>        -0.047367 
      2 C           0.794271   -0.679859    0.182451 C.ar      1 <1>        -0.055661 
      3 C          -1.230689    0.745218   -0.200410 C.ar      1 <1>        -0.058565 
      4 C           1.153607    1.792216   -0.475683 C.3       1 <1>        -0.030517 
      5 C          -0.021095   -1.801508    0.480019 C.ar      1 <1>        -0.050189 
      6 C          -2.080324   -0.428672    0.111030 C.ar      1 <1>        -0.061253 
      7 C           0.481680    3.142139   -0.836675 C.3       1 <1>        -0.061265 
      8 C          -1.496124   -1.661146    0.440352 C.ar      1 <1>        -0.058821 
      9 C           0.588333   -3.159440    0.842802 C.3       1 <1>        -0.039700 
     10 H           1.874425   -0.774453    0.209322 H         1 <1>         0.062291 
     11 H          -1.717505    1.679628   -0.450155 H         1 <1>         0.062029 
     12 H           1.792347    1.939536    0.410308 H         1 <1>         0.031051 
     13 H           1.795253    1.479515   -1.315453 H         1 <1>         0.031051 
     14 H          -3.161035   -0.332170    0.083652 H         1 <1>         0.061775 
     15 H           1.255122    3.900397   -1.037570 H         1 <1>         0.023287 
     16 H          -0.138774    3.037202   -1.740330 H         1 <1>         0.023287 
     17 H          -0.141596    3.500494   -0.002600 H         1 <1>         0.023287 
     18 H          -2.125133   -2.515846    0.667096 H         1 <1>         0.062020 
     19 H           1.688219   -3.132205    0.837021 H         1 <1>         0.027753 
     20 H           0.246801   -3.450367    1.847366 H         1 <1>         0.027753 
     21 H           0.249148   -3.912003    0.115431 H         1 <1>         0.027753 
@<TRIPOS>BOND
     1    1    2 1    
     2    1    3 2    
     3    1    4 1    
     4    2    5 2    
     5    2   10 1    
     6    3    6 1    
     7    3   11 1    
     8    4    7 1    
     9    4   12 1    
    10    4   13 1    
    11    5    8 1    
    12    5    9 1    
    13    6    8 2    
    14    6   14 1    
    15    7   15 1    
    16    7   16 1    
    17    7   17 1    
    18    8   18 1    
    19    9   19 1    
    20    9   20 1    
    21    9   21 1    
@<TRIPOS>SUBSTRUCTURE
     1 ****        1 TEMP              0 ****  ****    0 ROOT 
@<TRIPOS>NORMAL
@<TRIPOS>FF_PBC
FORCE_FIELD_SETUP_FEATURE Force Field Setup information
v1.0  0 0.000000 0.000000 0.000000 0.000000 0.000000 0.000000 NONE 0 0 0 0 1 0 0 0 0 0 0 0 0
