@<TRIPOS>MOLECULE
MOL002132
   39    40     1     1     0
SMALL
GASTEIGER


@<TRIPOS>ATOM
      1 C           0.649704    0.887673   -0.328918 C.3       1 <1>        -0.024466 
      2 C           1.515579    0.395891    0.859200 C.3       1 <1>        -0.016687 
      3 C           1.629176   -1.148272    0.824913 C.3       1 <1>        -0.045457 
      4 C           0.211116   -1.774476    0.877586 C.3       1 <1>        -0.043364 
      5 C          -0.762353   -1.259442   -0.232921 C.3       1 <1>        -0.010775 
      6 C          -2.183230   -1.796332    0.134610 C.3       1 <1>        -0.043624 
      7 C          -3.284528   -1.103919   -0.694520 C.3       1 <1>        -0.048582 
      8 C          -3.254415    0.404028   -0.357646 C.3       1 <1>        -0.031707 
      9 C          -1.865068    1.007995   -0.344744 C.2       1 <1>        -0.072834 
     10 C          -0.739604    0.265382   -0.300094 C.2       1 <1>        -0.064093 
     11 C           2.901959    1.019769    0.919804 C.2       1 <1>        -0.076312 
     12 C           3.443991    1.396622    2.087152 C.2       1 <1>        -0.099437 
     13 C           3.651815    1.195331   -0.384300 C.3       1 <1>        -0.043768 
     14 C          -1.841763    2.523735   -0.377826 C.3       1 <1>        -0.043516 
     15 C          -0.337055   -1.823960   -1.626502 C.3       1 <1>        -0.055834 
     16 H           0.658753    1.984433   -0.282719 H         1 <1>         0.031597 
     17 H           1.116538    0.614885   -1.284903 H         1 <1>         0.031597 
     18 H           0.963652    0.674752    1.773847 H         1 <1>         0.034847 
     19 H           2.208499   -1.486371    1.701132 H         1 <1>         0.027133 
     20 H           2.174142   -1.480722   -0.069596 H         1 <1>         0.027133 
     21 H          -0.195970   -1.522457    1.870724 H         1 <1>         0.027375 
     22 H           0.293300   -2.872384    0.822520 H         1 <1>         0.027375 
     23 H          -2.236811   -2.888043   -0.006858 H         1 <1>         0.027366 
     24 H          -2.416786   -1.591896    1.192429 H         1 <1>         0.027366 
     25 H          -4.274075   -1.520903   -0.439560 H         1 <1>         0.026856 
     26 H          -3.129983   -1.263425   -1.771727 H         1 <1>         0.026856 
     27 H          -3.893364    0.916730   -1.095604 H         1 <1>         0.030998 
     28 H          -3.686583    0.570517    0.642469 H         1 <1>         0.030998 
     29 H           2.915838    1.267424    3.031405 H         1 <1>         0.053440 
     30 H           4.434990    1.846142    2.140908 H         1 <1>         0.053440 
     31 H           4.701732    1.481469   -0.220364 H         1 <1>         0.027436 
     32 H           3.180182    1.987443   -0.984056 H         1 <1>         0.027436 
     33 H           3.650628    0.260420   -0.962700 H         1 <1>         0.027436 
     34 H          -2.852654    2.958644   -0.391067 H         1 <1>         0.027444 
     35 H          -1.320172    2.875640   -1.280753 H         1 <1>         0.027444 
     36 H          -1.339776    2.913690    0.520559 H         1 <1>         0.027444 
     37 H          -0.926415   -1.371726   -2.436073 H         1 <1>         0.023812 
     38 H           0.716275   -1.629556   -1.861772 H         1 <1>         0.023812 
     39 H          -0.477464   -2.914730   -1.664132 H         1 <1>         0.023812 
@<TRIPOS>BOND
     1    1    2 1    
     2    1   10 1    
     3    1   16 1    
     4    1   17 1    
     5    2    3 1    
     6    2   11 1    
     7    2   18 1    
     8    3    4 1    
     9    3   19 1    
    10    3   20 1    
    11    4    5 1    
    12    4   21 1    
    13    4   22 1    
    14    5    6 1    
    15    5   10 1    
    16    5   15 1    
    17    6    7 1    
    18    6   23 1    
    19    6   24 1    
    20    7    8 1    
    21    7   25 1    
    22    7   26 1    
    23    8    9 1    
    24    8   27 1    
    25    8   28 1    
    26    9   10 2    
    27    9   14 1    
    28   11   12 2    
    29   11   13 1    
    30   12   29 1    
    31   12   30 1    
    32   13   31 1    
    33   13   32 1    
    34   13   33 1    
    35   14   34 1    
    36   14   35 1    
    37   14   36 1    
    38   15   37 1    
    39   15   38 1    
    40   15   39 1    
@<TRIPOS>SUBSTRUCTURE
     1 ****        1 TEMP              0 ****  ****    0 ROOT 
@<TRIPOS>NORMAL
@<TRIPOS>FF_PBC
FORCE_FIELD_SETUP_FEATURE Force Field Setup information
v1.0  0 0.000000 0.000000 0.000000 0.000000 0.000000 0.000000 NONE 0 0 0 0 1 0 0 0 0 0 0 0 0
