@<TRIPOS>MOLECULE
MOL004683
   55    54     1     1     0
SMALL
GASTEIGER


@<TRIPOS>ATOM
      1 O          -6.520383    9.875972   -0.000057 O.3       1 <1>        -0.315197 
      2 O          -4.330730    9.815161   -0.000178 O.2       1 <1>        -0.259888 
      3 C           1.593047   -2.918261    0.000071 C.3       1 <1>        -0.053057 
      4 C           1.571136   -1.365018   -0.000161 C.3       1 <1>        -0.053057 
      5 C           3.047055   -3.464858   -0.000142 C.3       1 <1>        -0.053057 
      6 C           0.116575   -0.819790    0.000044 C.3       1 <1>        -0.053057 
      7 C           3.068122   -5.018183    0.000079 C.3       1 <1>        -0.053057 
      8 C           0.093432    0.733479   -0.000156 C.3       1 <1>        -0.053048 
      9 C           4.522411   -5.564024   -0.000139 C.3       1 <1>        -0.053065 
     10 C          -1.361622    1.277015    0.000087 C.3       1 <1>        -0.052779 
     11 C           4.545666   -7.117208    0.000094 C.3       1 <1>        -0.053306 
     12 C          -1.386936    2.830249   -0.000067 C.3       1 <1>        -0.049607 
     13 C           6.000768   -7.660223   -0.000117 C.3       1 <1>        -0.055911 
     14 C          -2.842233    3.371167    0.000219 C.3       1 <1>        -0.034468 
     15 C           6.025284   -9.210959    0.000099 C.3       1 <1>        -0.065276 
     16 C          -2.891532    4.881016    0.000119 C.2       1 <1>        -0.084005 
     17 C          -4.055356    5.544362    0.000054 C.2       1 <1>        -0.065508 
     18 C          -4.144349    7.021130   -0.000026 C.2       1 <1>        -0.056397 
     19 C          -5.306605    7.690019   -0.000013 C.2       1 <1>         0.009917 
     20 C          -5.369075    9.174815   -0.000086 C.2       1 <1>         0.286328 
     21 C          -7.757740    9.139630    0.000041 C.3       1 <1>         0.046178 
     22 H          -1.955804    5.441701    0.000114 H         1 <1>         0.057204 
     23 H          -4.977490    4.961570    0.000068 H         1 <1>         0.061450 
     24 H          -3.209396    7.583072   -0.000098 H         1 <1>         0.061930 
     25 H          -6.205069    7.078198    0.000060 H         1 <1>         0.067717 
     26 H           1.064702   -3.289736    0.893554 H         1 <1>         0.026528 
     27 H           1.064340   -3.290001   -0.893098 H         1 <1>         0.026528 
     28 H           2.099354   -0.993253   -0.893631 H         1 <1>         0.026528 
     29 H           2.099717   -0.992991    0.893001 H         1 <1>         0.026528 
     30 H           3.575600   -3.093532   -0.893602 H         1 <1>         0.026528 
     31 H           3.575961   -3.093263    0.892993 H         1 <1>         0.026528 
     32 H          -0.411541   -1.191791    0.893474 H         1 <1>         0.026528 
     33 H          -0.411894   -1.192031   -0.893042 H         1 <1>         0.026528 
     34 H           2.539741   -5.389725    0.893544 H         1 <1>         0.026528 
     35 H           2.539379   -5.389991   -0.893033 H         1 <1>         0.026528 
     36 H           0.621136    1.105820   -0.893644 H         1 <1>         0.026529 
     37 H           0.621514    1.106058    0.893032 H         1 <1>         0.026529 
     38 H           5.050650   -5.192330   -0.893594 H         1 <1>         0.026528 
     39 H           5.051022   -5.192062    0.893023 H         1 <1>         0.026528 
     40 H          -1.889220    0.904377    0.893560 H         1 <1>         0.026538 
     41 H          -1.889588    0.904183   -0.893095 H         1 <1>         0.026538 
     42 H           4.018376   -7.490181    0.893607 H         1 <1>         0.026520 
     43 H           4.018006   -7.490443   -0.893089 H         1 <1>         0.026520 
     44 H          -0.861753    3.205146   -0.894249 H         1 <1>         0.026822 
     45 H          -0.861342    3.205321    0.893783 H         1 <1>         0.026822 
     46 H           6.531979   -7.292059   -0.893782 H         1 <1>         0.026265 
     47 H           6.532343   -7.291804    0.893193 H         1 <1>         0.026265 
     48 H          -3.369802    3.001723    0.894388 H         1 <1>         0.030741 
     49 H          -3.370225    3.001555   -0.893639 H         1 <1>         0.030741 
     50 H           7.065543   -9.573477   -0.000070 H         1 <1>         0.022978 
     51 H           5.518084   -9.603321    0.895298 H         1 <1>         0.022978 
     52 H           5.517712   -9.603582   -0.894796 H         1 <1>         0.022978 
     53 H          -8.568108    9.883682    0.000054 H         1 <1>         0.052972 
     54 H          -7.870431    8.523674    0.906191 H         1 <1>         0.052972 
     55 H          -7.870529    8.523596   -0.906038 H         1 <1>         0.052972 
@<TRIPOS>BOND
     1   20    1 1    
     2    1   21 1    
     3   20    2 2    
     4    4    3 1    
     5    3    5 1    
     6    3   26 1    
     7    3   27 1    
     8    6    4 1    
     9    4   28 1    
    10    4   29 1    
    11    5    7 1    
    12    5   30 1    
    13    5   31 1    
    14    8    6 1    
    15    6   32 1    
    16    6   33 1    
    17    7    9 1    
    18    7   34 1    
    19    7   35 1    
    20   10    8 1    
    21    8   36 1    
    22    8   37 1    
    23    9   11 1    
    24    9   38 1    
    25    9   39 1    
    26   12   10 1    
    27   10   40 1    
    28   10   41 1    
    29   11   13 1    
    30   11   42 1    
    31   11   43 1    
    32   14   12 1    
    33   12   44 1    
    34   12   45 1    
    35   13   15 1    
    36   13   46 1    
    37   13   47 1    
    38   16   14 1    
    39   14   48 1    
    40   14   49 1    
    41   15   50 1    
    42   15   51 1    
    43   15   52 1    
    44   17   16 2    
    45   16   22 1    
    46   18   17 1    
    47   17   23 1    
    48   19   18 2    
    49   18   24 1    
    50   19   20 1    
    51   19   25 1    
    52   21   53 1    
    53   21   54 1    
    54   21   55 1    
@<TRIPOS>SUBSTRUCTURE
     1 ****        3 TEMP              0 ****  ****    0 ROOT 
@<TRIPOS>NORMAL
@<TRIPOS>FF_PBC
FORCE_FIELD_SETUP_FEATURE Force Field Setup information
v1.0  0 0.000000 0.000000 0.000000 0.000000 0.000000 0.000000 NONE 0 0 0 0 1 0 0 0 0 0 0 0 0
