@<TRIPOS>MOLECULE
MOL002085
   39    41     1     1     0
SMALL
GASTEIGER


@<TRIPOS>ATOM
      1 C           1.170034   -0.570205    0.550795 C.3       1 <1>        -0.012844 
      2 C          -0.027208    0.410385    0.491948 C.3       1 <1>        -0.024206 
      3 C           1.120497    0.517016   -0.545132 C.3       1 <1>        -0.010088 
      4 C           0.921651   -2.064300    0.198558 C.3       1 <1>        -0.037099 
      5 C          -1.385527   -0.009768   -0.143746 C.3       1 <1>        -0.034766 
      6 C           2.289547   -0.200588    1.564120 C.3       1 <1>        -0.027758 
      7 C           2.281571    1.387580   -0.173030 C.2       1 <1>        -0.072590 
      8 C          -0.387428   -2.303396   -0.599543 C.3       1 <1>        -0.049652 
      9 C          -1.578105   -1.539661    0.030366 C.3       1 <1>        -0.049429 
     10 C           2.905868    1.019978    0.945960 C.2       1 <1>        -0.084176 
     11 C          -2.548285    0.840664    0.468888 C.3       1 <1>        -0.043598 
     12 C           2.122851   -2.684754   -0.569206 C.3       1 <1>        -0.061874 
     13 C           2.618620    2.558327   -1.056292 C.3       1 <1>        -0.043497 
     14 C          -2.418060    2.335253    0.045427 C.3       1 <1>        -0.062405 
     15 C          -3.961259    0.334532    0.056384 C.3       1 <1>        -0.062405 
     16 H          -0.008844    1.174673    1.283944 H         1 <1>         0.031513 
     17 H           1.066020    0.065754   -1.546078 H         1 <1>         0.035410 
     18 H           0.820294   -2.581923    1.167782 H         1 <1>         0.030383 
     19 H          -1.374808    0.204072   -1.225640 H         1 <1>         0.030629 
     20 H           3.050390   -0.985873    1.667196 H         1 <1>         0.031311 
     21 H           1.865364    0.019825    2.555402 H         1 <1>         0.031311 
     22 H          -0.609285   -3.384512   -0.599428 H         1 <1>         0.026811 
     23 H          -0.266331   -1.993175   -1.649613 H         1 <1>         0.026811 
     24 H          -2.485013   -1.876191   -0.496792 H         1 <1>         0.026819 
     25 H          -1.676422   -1.791475    1.098565 H         1 <1>         0.026819 
     26 H           3.764433    1.540843    1.369429 H         1 <1>         0.057181 
     27 H          -2.484743    0.780814    1.569563 H         1 <1>         0.029823 
     28 H           3.049091   -2.651453    0.021324 H         1 <1>         0.023259 
     29 H           1.916048   -3.740055   -0.806001 H         1 <1>         0.023259 
     30 H           2.295629   -2.144941   -1.512174 H         1 <1>         0.023259 
     31 H           3.482305    3.116762   -0.665048 H         1 <1>         0.027445 
     32 H           1.752800    3.235201   -1.109901 H         1 <1>         0.027445 
     33 H           2.856960    2.199530   -2.068601 H         1 <1>         0.027445 
     34 H          -2.540866    2.432363   -1.044254 H         1 <1>         0.023242 
     35 H          -3.195476    2.942445    0.534941 H         1 <1>         0.023242 
     36 H          -1.443819    2.765300    0.317446 H         1 <1>         0.023242 
     37 H          -4.031327    0.245860   -1.038648 H         1 <1>         0.023242 
     38 H          -4.738694    1.035658    0.397646 H         1 <1>         0.023242 
     39 H          -4.188774   -0.640965    0.511744 H         1 <1>         0.023242 
@<TRIPOS>BOND
     1    1    2 1    
     2    1    3 1    
     3    1    4 1    
     4    1    6 1    
     5    2    3 1    
     6    2    5 1    
     7    2   16 1    
     8    3    7 1    
     9    3   17 1    
    10    4    8 1    
    11    4   12 1    
    12    4   18 1    
    13    5    9 1    
    14    5   11 1    
    15    5   19 1    
    16    6   10 1    
    17    6   20 1    
    18    6   21 1    
    19    7   10 2    
    20    7   13 1    
    21    8    9 1    
    22    8   22 1    
    23    8   23 1    
    24    9   24 1    
    25    9   25 1    
    26   10   26 1    
    27   11   14 1    
    28   11   15 1    
    29   11   27 1    
    30   12   28 1    
    31   12   29 1    
    32   12   30 1    
    33   13   31 1    
    34   13   32 1    
    35   13   33 1    
    36   14   34 1    
    37   14   35 1    
    38   14   36 1    
    39   15   37 1    
    40   15   38 1    
    41   15   39 1    
@<TRIPOS>SUBSTRUCTURE
     1 ****        1 TEMP              0 ****  ****    0 ROOT 
@<TRIPOS>NORMAL
@<TRIPOS>FF_PBC
FORCE_FIELD_SETUP_FEATURE Force Field Setup information
v1.0  0 0.000000 0.000000 0.000000 0.000000 0.000000 0.000000 NONE 0 0 0 0 1 0 0 0 0 0 0 0 0
