@<TRIPOS>MOLECULE
MOL005649
   19    19     1     1     0
SMALL
GASTEIGER


@<TRIPOS>ATOM
      1 O          -2.416483   -0.875310    0.000474 O.3       1 <1>        -0.347829 
      2 O           2.318466   -2.087414   -0.001537 O.3       1 <1>        -0.359061 
      3 O           4.060463   -0.106712   -0.001079 O.2       1 <1>        -0.295613 
      4 C          -1.078253   -0.461687    0.000347 C.ar      1 <1>         0.078289 
      5 C           1.727147    0.307128    0.000186 C.ar      1 <1>         0.044011 
      6 C           1.360427   -1.068567   -0.000600 C.ar      1 <1>         0.085203 
      7 C          -0.074092   -1.436951   -0.000403 C.ar      1 <1>        -0.001242 
      8 C          -0.693178    0.973925    0.000993 C.ar      1 <1>        -0.030877 
      9 C           0.663447    1.341120    0.000955 C.ar      1 <1>        -0.046623 
     10 C           3.177638    0.736492    0.000240 C.2       1 <1>         0.152663 
     11 C          -3.492643    0.075931    0.000167 C.3       1 <1>         0.043027 
     12 H          -0.350623   -2.484941   -0.000846 H         1 <1>         0.066929 
     13 H          -1.442236    1.756363    0.001503 H         1 <1>         0.064349 
     14 H           0.933410    2.392507    0.001464 H         1 <1>         0.062601 
     15 H           3.452930    1.790345    0.001441 H         1 <1>         0.108224 
     16 H          -4.437662   -0.486866    0.000031 H         1 <1>         0.052870 
     17 H          -3.463666    0.704642   -0.902975 H         1 <1>         0.052870 
     18 H          -3.464085    0.704840    0.903183 H         1 <1>         0.052870 
     19 H           3.218796   -1.774945   -0.003246 H         1 <1>         0.217341 
@<TRIPOS>BOND
     1    4    1 1    
     2    1   11 1    
     3    6    2 1    
     4    2   19 1    
     5   10    3 2    
     6    7    4 2    
     7    4    8 1    
     8    6    5 2    
     9    5    9 1    
    10    5   10 1    
    11    6    7 1    
    12    7   12 1    
    13    8    9 2    
    14    8   13 1    
    15    9   14 1    
    16   10   15 1    
    17   11   16 1    
    18   11   17 1    
    19   11   18 1    
@<TRIPOS>SUBSTRUCTURE
     1 ****        2 TEMP              0 ****  ****    0 ROOT 
@<TRIPOS>NORMAL
@<TRIPOS>FF_PBC
FORCE_FIELD_SETUP_FEATURE Force Field Setup information
v1.0  0 0.000000 0.000000 0.000000 0.000000 0.000000 0.000000 NONE 0 0 0 0 1 0 0 0 0 0 0 0 0
