@<TRIPOS>MOLECULE
MOL007948
   39    39     1     1     0
SMALL
GASTEIGER


@<TRIPOS>ATOM
      1 C          -0.248832    0.935287   -1.482613 C.2       1 <1>        -0.066518 
      2 C          -1.111229    1.674809   -2.481107 C.3       1 <1>        -0.027529 
      3 C          -0.737067    3.169833   -2.365918 C.3       1 <1>        -0.028292 
      4 C           1.218728    0.974375   -1.864338 C.3       1 <1>        -0.013035 
      5 C          -0.710486    0.317934   -0.373377 C.2       1 <1>        -0.072782 
      6 C           0.750336    3.350195   -2.566083 C.2       1 <1>        -0.075932 
      7 C           0.207291   -0.544326    0.484465 C.3       1 <1>        -0.028300 
      8 C           1.618274    2.348171   -2.355220 C.2       1 <1>        -0.081015 
      9 C          -0.440537   -1.627138    1.398072 C.3       1 <1>        -0.030839 
     10 C          -2.147282    0.434687    0.101316 C.3       1 <1>        -0.043515 
     11 C           1.197280    4.722997   -3.013807 C.3       1 <1>        -0.043768 
     12 C           0.596318   -2.517387    2.048926 C.2       1 <1>        -0.084989 
     13 C           0.332417   -3.465375    2.963821 C.2       1 <1>        -0.079608 
     14 C           1.441893   -4.296019    3.573979 C.3       1 <1>        -0.044049 
     15 C          -1.057869   -3.790283    3.466721 C.3       1 <1>        -0.044049 
     16 H          -2.195880    1.526570   -2.393804 H         1 <1>         0.031320 
     17 H          -0.843400    1.318692   -3.489877 H         1 <1>         0.031320 
     18 H          -1.016817    3.556325   -1.373127 H         1 <1>         0.031294 
     19 H          -1.297300    3.731986   -3.130791 H         1 <1>         0.031294 
     20 H           1.893657    0.769154   -1.021184 H         1 <1>         0.035246 
     21 H           1.411143    0.236198   -2.658320 H         1 <1>         0.035246 
     22 H           0.866256   -1.109786   -0.194659 H         1 <1>         0.031294 
     23 H           0.821748    0.118192    1.115277 H         1 <1>         0.031294 
     24 H           2.681632    2.513197   -2.536038 H         1 <1>         0.057470 
     25 H          -1.007257   -1.150987    2.211307 H         1 <1>         0.031044 
     26 H          -1.116865   -2.250773    0.792392 H         1 <1>         0.031044 
     27 H          -2.662627    1.335199   -0.253637 H         1 <1>         0.027444 
     28 H          -2.185222    0.520548    1.194781 H         1 <1>         0.027444 
     29 H          -2.718823   -0.451354   -0.211073 H         1 <1>         0.027444 
     30 H           2.292569    4.815212   -3.071513 H         1 <1>         0.027436 
     31 H           0.827172    5.475885   -2.301839 H         1 <1>         0.027436 
     32 H           0.780821    4.940323   -4.008805 H         1 <1>         0.027436 
     33 H           1.634016   -2.369330    1.749125 H         1 <1>         0.057155 
     34 H           1.394639   -4.221620    4.670931 H         1 <1>         0.027427 
     35 H           2.447250   -3.979337    3.257530 H         1 <1>         0.027427 
     36 H           1.310378   -5.349836    3.286365 H         1 <1>         0.027427 
     37 H          -1.227855   -4.875190    3.394740 H         1 <1>         0.027427 
     38 H          -1.866613   -3.293187    2.914018 H         1 <1>         0.027427 
     39 H          -1.131851   -3.493638    4.523860 H         1 <1>         0.027427 
@<TRIPOS>BOND
     1    1    2 1    
     2    1    4 1    
     3    1    5 2    
     4    2    3 1    
     5    2   16 1    
     6    2   17 1    
     7    3    6 1    
     8    3   18 1    
     9    3   19 1    
    10    4    8 1    
    11    4   20 1    
    12    4   21 1    
    13    5    7 1    
    14    5   10 1    
    15    6    8 2    
    16    6   11 1    
    17    7    9 1    
    18    7   22 1    
    19    7   23 1    
    20    8   24 1    
    21    9   12 1    
    22    9   25 1    
    23    9   26 1    
    24   10   27 1    
    25   10   28 1    
    26   10   29 1    
    27   11   30 1    
    28   11   31 1    
    29   11   32 1    
    30   12   13 2    
    31   12   33 1    
    32   13   14 1    
    33   13   15 1    
    34   14   34 1    
    35   14   35 1    
    36   14   36 1    
    37   15   37 1    
    38   15   38 1    
    39   15   39 1    
@<TRIPOS>SUBSTRUCTURE
     1 ****        1 TEMP              0 ****  ****    0 ROOT 
@<TRIPOS>NORMAL
@<TRIPOS>FF_PBC
FORCE_FIELD_SETUP_FEATURE Force Field Setup information
v1.0  0 0.000000 0.000000 0.000000 0.000000 0.000000 0.000000 NONE 0 0 0 0 1 0 0 0 0 0 0 0 0
