@<TRIPOS>MOLECULE
MOL002455
   36    35     1     1     0
SMALL
GASTEIGER


@<TRIPOS>ATOM
      1 C          -0.131784   -1.521416   -0.799903 C.3       1 <1>        -0.041509 
      2 C          -1.497099   -0.833939   -0.475192 C.3       1 <1>        -0.046940 
      3 C           1.015371   -0.484347   -1.004522 C.3       1 <1>        -0.026274 
      4 C           0.235925   -2.595529    0.263759 C.3       1 <1>        -0.062334 
      5 C          -1.540752   -0.053938    0.869363 C.3       1 <1>        -0.034283 
      6 C           2.316808   -1.094992   -1.587125 C.3       1 <1>         0.057295 
      7 C          -2.889356    0.588383    1.107174 C.2       1 <1>        -0.085278 
      8 O           3.225200   -0.008204   -1.860269 O.3       1 <1>        -0.315394 
      9 C          -3.122079    1.543847    2.023042 C.2       1 <1>        -0.079617 
     10 C           4.398825   -0.393444   -2.381976 C.2       1 <1>         0.259041 
     11 C          -4.490926    2.172752    2.175469 C.3       1 <1>        -0.044050 
     12 C          -2.060145    2.072708    2.964284 C.3       1 <1>        -0.044050 
     13 C           5.351364    0.727804   -2.687737 C.3       1 <1>         0.021433 
     14 O           4.688809   -1.558057   -2.609754 O.2       1 <1>        -0.265283 
     15 H          -0.279308   -2.047318   -1.760661 H         1 <1>         0.029893 
     16 H          -1.749286   -0.134610   -1.290256 H         1 <1>         0.027080 
     17 H          -2.283609   -1.607219   -0.451184 H         1 <1>         0.027080 
     18 H           1.274103    0.005353   -0.053170 H         1 <1>         0.029007 
     19 H           0.673347    0.293324   -1.706570 H         1 <1>         0.029007 
     20 H           1.037592   -3.254419   -0.102482 H         1 <1>         0.023243 
     21 H          -0.636010   -3.229498    0.488900 H         1 <1>         0.023243 
     22 H           0.578098   -2.125160    1.198005 H         1 <1>         0.023243 
     23 H          -1.338818   -0.735601    1.709215 H         1 <1>         0.030748 
     24 H          -0.776913    0.737103    0.850113 H         1 <1>         0.030748 
     25 H           2.085322   -1.642001   -2.517036 H         1 <1>         0.056588 
     26 H           2.772159   -1.787776   -0.860529 H         1 <1>         0.056588 
     27 H          -3.717751    0.245188    0.486440 H         1 <1>         0.057145 
     28 H          -5.209352    1.838096    1.412131 H         1 <1>         0.027427 
     29 H          -4.397057    3.266148    2.097328 H         1 <1>         0.027427 
     30 H          -4.901565    1.923611    3.165212 H         1 <1>         0.027427 
     31 H          -2.496508    2.262987    3.956361 H         1 <1>         0.027427 
     32 H          -1.219703    1.379508    3.109853 H         1 <1>         0.027427 
     33 H          -1.671568    3.021551    2.565901 H         1 <1>         0.027427 
     34 H           5.427560    1.399639   -1.820170 H         1 <1>         0.033023 
     35 H           6.351371    0.333971   -2.922204 H         1 <1>         0.033023 
     36 H           4.977534    1.295494   -3.552009 H         1 <1>         0.033023 
@<TRIPOS>BOND
     1    1    2 1    
     2    1    3 1    
     3    1    4 1    
     4    1   15 1    
     5    2    5 1    
     6    2   16 1    
     7    2   17 1    
     8    3    6 1    
     9    3   18 1    
    10    3   19 1    
    11    4   20 1    
    12    4   21 1    
    13    4   22 1    
    14    5    7 1    
    15    5   23 1    
    16    5   24 1    
    17    6    8 1    
    18    6   25 1    
    19    6   26 1    
    20    7    9 2    
    21    7   27 1    
    22    8   10 1    
    23    9   11 1    
    24    9   12 1    
    25   10   13 1    
    26   10   14 2    
    27   11   28 1    
    28   11   29 1    
    29   11   30 1    
    30   12   31 1    
    31   12   32 1    
    32   12   33 1    
    33   13   34 1    
    34   13   35 1    
    35   13   36 1    
@<TRIPOS>SUBSTRUCTURE
     1 ****        1 TEMP              0 ****  ****    0 ROOT 
@<TRIPOS>NORMAL
@<TRIPOS>FF_PBC
FORCE_FIELD_SETUP_FEATURE Force Field Setup information
v1.0  0 0.000000 0.000000 0.000000 0.000000 0.000000 0.000000 NONE 0 0 0 0 1 0 0 0 0 0 0 0 0
