@<TRIPOS>MOLECULE
MOL004703
  122   129     1     1     0
SMALL
GASTEIGER


@<TRIPOS>ATOM
      1 O          -4.015775    1.838466    3.574356 O.3       1 <1>        -0.340520 
      2 C          -5.250461    1.369318    3.001679 C.3       1 <1>         0.188437 
      3 C          -6.011480    0.541306    4.074281 C.3       1 <1>         0.134124 
      4 C          -5.155152   -0.691656    4.462611 C.3       1 <1>         0.114061 
      5 C          -3.781587   -0.208015    4.998914 C.3       1 <1>         0.111896 
      6 C          -3.116826    0.791447    4.005463 C.3       1 <1>         0.113005 
      7 O          -4.902361    0.686328    1.775725 O.3       1 <1>        -0.340053 
      8 C          -5.998074    0.269323    0.924364 C.3       1 <1>         0.120486 
      9 C          -5.443038   -0.743207   -0.117647 C.3       1 <1>         0.134483 
     10 C          -4.833029   -0.021337   -1.354749 C.3       1 <1>         0.188126 
     11 O          -4.444874    1.308181   -0.977145 O.3       1 <1>        -0.343072 
     12 C          -5.567518    2.169836   -0.690292 C.3       1 <1>         0.087317 
     13 C          -6.662372    1.434735    0.146664 C.3       1 <1>         0.109842 
     14 O          -6.276428    1.400830    5.204486 O.3       1 <1>        -0.384104 
     15 O          -5.044789   -1.577805    3.329953 O.3       1 <1>        -0.386401 
     16 O          -4.010039    0.387751    6.293799 O.3       1 <1>        -0.386488 
     17 C          -2.368362    0.092283    2.833230 C.3       1 <1>         0.073015 
     18 O          -1.849877    1.082993    1.931459 O.3       1 <1>        -0.392366 
     19 O          -6.496755   -1.638806   -0.536854 O.3       1 <1>        -0.384094 
     20 O          -3.719282   -0.827038   -1.793628 O.3       1 <1>        -0.344893 
     21 C          -3.039647   -0.402734   -2.998664 C.3       1 <1>         0.067174 
     22 C          -2.091226   -1.553610   -3.485633 C.3       1 <1>        -0.005220 
     23 C          -0.615903   -1.432787   -2.895328 C.3       1 <1>        -0.027555 
     24 C          -0.446305   -0.608876   -1.551247 C.3       1 <1>        -0.021826 
     25 C           1.056225   -0.124037   -1.387568 C.3       1 <1>        -0.011152 
     26 C           2.210662   -1.066308   -1.867835 C.3       1 <1>        -0.016907 
     27 C           3.603100   -0.311254   -1.649229 C.3       1 <1>         0.009124 
     28 C           3.845490   -0.155584   -0.101171 C.3       1 <1>         0.096991 
     29 O           4.113952   -1.417379    0.545234 O.3       1 <1>        -0.367842 
     30 C           5.510356   -1.755305    0.462301 C.3       1 <1>         0.057154 
     31 C           6.180382   -0.508071   -0.164242 C.3       1 <1>         0.025848 
     32 C           5.172999    0.598948    0.228224 C.3       1 <1>         0.002843 
     33 C           5.317110    1.010238    1.726853 C.3       1 <1>        -0.041426 
     34 C           6.768519    1.406990    2.134444 C.3       1 <1>        -0.034485 
     35 C           7.716846    0.213708    1.821650 C.3       1 <1>        -0.047195 
     36 C           7.631638   -0.240390    0.339568 C.3       1 <1>        -0.042066 
     37 C          -2.212228    0.884328   -2.800855 C.3       1 <1>        -0.025461 
     38 C          -1.339828    0.698417   -1.537496 C.3       1 <1>        -0.044439 
     39 C           0.520007   -1.047217   -3.901129 C.3       1 <1>        -0.048598 
     40 C           1.951056   -1.407627   -3.380108 C.3       1 <1>        -0.046184 
     41 C           1.381634    0.451791   -0.025507 C.2       1 <1>        -0.081074 
     42 C           2.596281    0.415384    0.542857 C.2       1 <1>        -0.055410 
     43 C           4.810596   -1.074896   -2.296531 C.3       1 <1>        -0.017380 
     44 C           6.198032   -0.667735   -1.715911 C.3       1 <1>         0.063916 
     45 C          -4.973731    3.420872    0.006489 C.3       1 <1>        -0.036060 
     46 O          -7.420377    2.298258    1.016486 O.3       1 <1>        -0.386569 
     47 C          -2.114628   -1.563307   -5.053491 C.3       1 <1>        -0.057181 
     48 C          -2.742224   -2.922197   -3.082504 C.3       1 <1>        -0.057181 
     49 C          -0.906685   -1.496933   -0.336381 C.3       1 <1>        -0.058737 
     50 C           2.137247   -2.394734   -1.026608 C.3       1 <1>        -0.058408 
     51 C           3.597065    1.126029   -2.300015 C.3       1 <1>        -0.056020 
     52 C           6.804427    1.684410    3.669660 C.3       1 <1>        -0.059801 
     53 C           7.233959    2.709829    1.411758 C.3       1 <1>        -0.059801 
     54 O           7.172991   -1.671865   -2.059446 O.3       1 <1>        -0.391131 
     55 H          -5.835070    2.278236    2.801884 H         1 <1>         0.093753 
     56 H          -6.986618    0.202608    3.691639 H         1 <1>         0.067095 
     57 H          -5.676262   -1.232857    5.272133 H         1 <1>         0.064758 
     58 H          -3.126601   -1.084264    5.144881 H         1 <1>         0.064673 
     59 H          -2.327643    1.338226    4.546252 H         1 <1>         0.064668 
     60 H          -6.756309   -0.285823    1.494590 H         1 <1>         0.065136 
     61 H          -4.658833   -1.324064    0.399166 H         1 <1>         0.067105 
     62 H          -5.586521    0.019550   -2.159762 H         1 <1>         0.093748 
     63 H          -6.015210    2.507570   -1.641599 H         1 <1>         0.062075 
     64 H          -7.385636    0.957968   -0.541480 H         1 <1>         0.064594 
     65 H          -6.696933    0.958708    5.935027 H         1 <1>         0.210110 
     66 H          -4.573741   -2.383387    3.520181 H         1 <1>         0.210005 
     67 H          -3.219692    0.699933    6.723193 H         1 <1>         0.210004 
     68 H          -1.508124   -0.473814    3.224945 H         1 <1>         0.058370 
     69 H          -2.998507   -0.623942    2.287637 H         1 <1>         0.058370 
     70 H          -2.559833    1.608341    1.570719 H         1 <1>         0.209508 
     71 H          -6.181186   -2.319204   -1.125354 H         1 <1>         0.210111 
     72 H          -3.814704   -0.212208   -3.759539 H         1 <1>         0.060224 
     73 H          -0.336414   -2.474865   -2.700211 H         1 <1>         0.031220 
     74 H           1.127519    0.741891   -2.053297 H         1 <1>         0.035379 
     75 H           5.691149   -2.680089   -0.105122 H         1 <1>         0.056652 
     76 H           5.834620   -1.946465    1.493111 H         1 <1>         0.056652 
     77 H           5.309529    1.516141   -0.355369 H         1 <1>         0.033899 
     78 H           4.673527    1.880242    1.932334 H         1 <1>         0.027428 
     79 H           4.979937    0.185069    2.372689 H         1 <1>         0.027428 
     80 H           8.757379    0.498433    2.049967 H         1 <1>         0.027062 
     81 H           7.469153   -0.632418    2.479975 H         1 <1>         0.027062 
     82 H           8.102470    0.529118   -0.290294 H         1 <1>         0.027239 
     83 H           8.225215   -1.161358    0.218492 H         1 <1>         0.027239 
     84 H          -2.868616    1.761599   -2.689528 H         1 <1>         0.029047 
     85 H          -1.589246    1.083078   -3.683764 H         1 <1>         0.029047 
     86 H          -2.022706    0.689168   -0.676968 H         1 <1>         0.027158 
     87 H          -0.784181    1.642510   -1.420398 H         1 <1>         0.027158 
     88 H           0.450095   -1.588170   -4.855772 H         1 <1>         0.026846 
     89 H           0.456681    0.023057   -4.146500 H         1 <1>         0.026846 
     90 H           2.140970   -2.481759   -3.543979 H         1 <1>         0.027097 
     91 H           2.644750   -0.901091   -4.063187 H         1 <1>         0.027097 
     92 H           0.581987    0.938309    0.536843 H         1 <1>         0.057297 
     93 H           2.657951    0.824357    1.549212 H         1 <1>         0.059762 
     94 H           4.853168   -0.898454   -3.382280 H         1 <1>         0.029668 
     95 H           4.723946   -2.159443   -2.187548 H         1 <1>         0.029668 
     96 H           6.537763    0.287918   -2.151163 H         1 <1>         0.059965 
     97 H          -4.478540    3.144488    0.946103 H         1 <1>         0.025536 
     98 H          -4.219275    3.880963   -0.650865 H         1 <1>         0.025536 
     99 H          -5.748752    4.171750    0.220047 H         1 <1>         0.025536 
    100 H          -7.899409    2.976519    0.549630 H         1 <1>         0.210002 
    101 H          -1.557571   -2.418091   -5.465327 H         1 <1>         0.023587 
    102 H          -3.141048   -1.664273   -5.439672 H         1 <1>         0.023587 
    103 H          -1.703617   -0.631060   -5.467956 H         1 <1>         0.023587 
    104 H          -2.731668   -3.085358   -1.996878 H         1 <1>         0.023587 
    105 H          -2.207390   -3.768620   -3.540959 H         1 <1>         0.023587 
    106 H          -3.790751   -2.967252   -3.416704 H         1 <1>         0.023587 
    107 H          -0.498969   -2.511762   -0.334527 H         1 <1>         0.023534 
    108 H          -1.994707   -1.622843   -0.320597 H         1 <1>         0.023534 
    109 H          -0.642801   -1.045806    0.628071 H         1 <1>         0.023534 
    110 H           3.060992   -2.980700   -1.034224 H         1 <1>         0.023543 
    111 H           1.891853   -2.194918    0.026149 H         1 <1>         0.023543 
    112 H           1.389059   -3.097916   -1.403125 H         1 <1>         0.023543 
    113 H           3.087571    1.157497   -3.271261 H         1 <1>         0.023625 
    114 H           3.111830    1.869469   -1.649954 H         1 <1>         0.023625 
    115 H           4.601571    1.513945   -2.508511 H         1 <1>         0.023625 
    116 H           7.824167    1.943754    3.993687 H         1 <1>         0.023499 
    117 H           6.137662    2.520828    3.930184 H         1 <1>         0.023499 
    118 H           6.480762    0.801931    4.242772 H         1 <1>         0.023499 
    119 H           7.252549    2.618594    0.318688 H         1 <1>         0.023499 
    120 H           8.249718    2.981481    1.737436 H         1 <1>         0.023499 
    121 H           6.562246    3.544806    1.663154 H         1 <1>         0.023499 
    122 H           7.274967   -1.796710   -2.998183 H         1 <1>         0.209802 
@<TRIPOS>BOND
     1    1    2 1    
     2    1    6 1    
     3    2    3 1    
     4    2    7 1    
     5    2   55 1    
     6    3    4 1    
     7    3   14 1    
     8    3   56 1    
     9    4    5 1    
    10    4   15 1    
    11    4   57 1    
    12    5    6 1    
    13    5   16 1    
    14    5   58 1    
    15    6   17 1    
    16    6   59 1    
    17    7    8 1    
    18    8    9 1    
    19    8   13 1    
    20    8   60 1    
    21    9   10 1    
    22    9   19 1    
    23    9   61 1    
    24   10   11 1    
    25   10   20 1    
    26   10   62 1    
    27   11   12 1    
    28   12   13 1    
    29   12   45 1    
    30   12   63 1    
    31   13   46 1    
    32   13   64 1    
    33   14   65 1    
    34   15   66 1    
    35   16   67 1    
    36   17   18 1    
    37   17   68 1    
    38   17   69 1    
    39   18   70 1    
    40   19   71 1    
    41   20   21 1    
    42   21   22 1    
    43   21   37 1    
    44   21   72 1    
    45   22   23 1    
    46   22   47 1    
    47   22   48 1    
    48   23   24 1    
    49   23   39 1    
    50   23   73 1    
    51   24   25 1    
    52   24   38 1    
    53   24   49 1    
    54   25   26 1    
    55   25   41 1    
    56   25   74 1    
    57   26   27 1    
    58   26   40 1    
    59   26   50 1    
    60   27   28 1    
    61   27   43 1    
    62   27   51 1    
    63   28   29 1    
    64   28   32 1    
    65   28   42 1    
    66   29   30 1    
    67   30   31 1    
    68   30   75 1    
    69   30   76 1    
    70   31   32 1    
    71   31   36 1    
    72   31   44 1    
    73   32   33 1    
    74   32   77 1    
    75   33   34 1    
    76   33   78 1    
    77   33   79 1    
    78   34   35 1    
    79   34   52 1    
    80   34   53 1    
    81   35   36 1    
    82   35   80 1    
    83   35   81 1    
    84   36   82 1    
    85   36   83 1    
    86   37   38 1    
    87   37   84 1    
    88   37   85 1    
    89   38   86 1    
    90   38   87 1    
    91   39   40 1    
    92   39   88 1    
    93   39   89 1    
    94   40   90 1    
    95   40   91 1    
    96   41   42 2    
    97   41   92 1    
    98   42   93 1    
    99   43   44 1    
   100   43   94 1    
   101   43   95 1    
   102   44   54 1    
   103   44   96 1    
   104   45   97 1    
   105   45   98 1    
   106   45   99 1    
   107   46  100 1    
   108   47  101 1    
   109   47  102 1    
   110   47  103 1    
   111   48  104 1    
   112   48  105 1    
   113   48  106 1    
   114   49  107 1    
   115   49  108 1    
   116   49  109 1    
   117   50  110 1    
   118   50  111 1    
   119   50  112 1    
   120   51  113 1    
   121   51  114 1    
   122   51  115 1    
   123   52  116 1    
   124   52  117 1    
   125   52  118 1    
   126   53  119 1    
   127   53  120 1    
   128   53  121 1    
   129   54  122 1    
@<TRIPOS>SUBSTRUCTURE
     1 ****        1 TEMP              0 ****  ****    0 ROOT 
@<TRIPOS>NORMAL
@<TRIPOS>FF_PBC
FORCE_FIELD_SETUP_FEATURE Force Field Setup information
v1.0  0 0.000000 0.000000 0.000000 0.000000 0.000000 0.000000 NONE 0 0 0 0 1 0 0 0 0 0 0 0 0
