@<TRIPOS>MOLECULE
MOL001458
   38    43     1     1     0
SMALL
GASTEIGER


@<TRIPOS>ATOM
      1 O           4.896865   -2.180683   13.095857 O.3       1 <1>        -0.315030 
      2 O           6.057727   -0.090362   13.269348 O.3       1 <1>        -0.315042 
      3 O          -4.733438    1.352635   13.516708 O.3       1 <1>        -0.314242 
      4 O          -6.063063   -0.375987   12.533768 O.3       1 <1>        -0.315029 
      5 N          -0.346068    1.241943   13.610257 N.ar      1 <1>        -0.196151 
      6 C           0.493334    2.376052   14.230841 C.3       1 <1>         0.155046 
      7 C           0.342657    0.083701   13.058253 C.ar      1 <1>         0.215834 
      8 C           1.747006    2.625592   13.356846 C.3       1 <1>         0.032989 
      9 C           1.826829    0.039006   13.134030 C.ar      1 <1>         0.052204 
     10 C           2.555705    1.330184   13.265383 C.ar      1 <1>        -0.025365 
     11 C          -2.512415    0.269550   13.020482 C.ar      1 <1>         0.078307 
     12 C          -1.737043    1.312527   13.596258 C.ar      1 <1>         0.182046 
     13 C          -0.444330   -1.008880   12.430989 C.ar      1 <1>         0.018304 
     14 C          -1.869808   -0.919002   12.416114 C.ar      1 <1>        -0.003341 
     15 C           2.578056   -1.186426   13.092841 C.ar      1 <1>        -0.015339 
     16 C           3.982337    1.346411   13.313172 C.ar      1 <1>        -0.024879 
     17 C          -3.988343    0.315685   12.991825 C.ar      1 <1>         0.122357 
     18 C           4.052108   -1.090688   13.147974 C.ar      1 <1>         0.109811 
     19 C           4.684923    0.048197   13.243685 C.ar      1 <1>         0.109329 
     20 C          -2.728495   -1.973326   11.813248 C.ar      1 <1>        -0.051028 
     21 C          -4.707090   -0.623750   12.459503 C.ar      1 <1>         0.109844 
     22 C          -4.124714   -1.832110   11.832273 C.ar      1 <1>        -0.028433 
     23 C           6.130874   -1.525720   13.509547 C.3       1 <1>         0.160031 
     24 C          -6.043273    0.714473   13.498320 C.3       1 <1>         0.160060 
     25 H          -0.081374    3.315129   14.301158 H         1 <1>         0.103387 
     26 H           0.799009    2.081409   15.248845 H         1 <1>         0.103387 
     27 H           2.354261    3.435051   13.794157 H         1 <1>         0.037507 
     28 H           1.445258    2.919131   12.339007 H         1 <1>         0.037507 
     29 H          -2.255349    2.165039   14.026758 H         1 <1>         0.138361 
     30 H           0.040236   -1.866224   11.979497 H         1 <1>         0.068959 
     31 H           2.111754   -2.161276   13.024733 H         1 <1>         0.065223 
     32 H           4.545286    2.269035   13.401033 H         1 <1>         0.064709 
     33 H          -2.279987   -2.850975   11.358755 H         1 <1>         0.062448 
     34 H          -4.772584   -2.586852   11.399183 H         1 <1>         0.064431 
     35 H           7.009306   -1.973289   13.019400 H         1 <1>         0.087950 
     36 H           6.233873   -1.673665   14.598537 H         1 <1>         0.087950 
     37 H          -6.846029    1.441780   13.301091 H         1 <1>         0.087950 
     38 H          -6.215901    0.275683   14.496421 H         1 <1>         0.087950 
@<TRIPOS>BOND
     1   18    1 1    
     2    1   23 1    
     3    2   19 1    
     4   23    2 1    
     5   17    3 1    
     6    3   24 1    
     7    4   21 1    
     8   24    4 1    
     9    5    6 1    
    10    7    5 2    
    11    5   12 1    
    12    8    6 1    
    13    6   25 1    
    14    6   26 1    
    15    9    7 1    
    16    7   13 1    
    17   10    8 1    
    18    8   27 1    
    19    8   28 1    
    20    9   10 1    
    21   15    9 2    
    22   10   16 2    
    23   12   11 2    
    24   14   11 1    
    25   11   17 1    
    26   12   29 1    
    27   13   14 2    
    28   13   30 1    
    29   14   20 1    
    30   15   18 1    
    31   15   31 1    
    32   16   19 1    
    33   16   32 1    
    34   17   21 2    
    35   18   19 2    
    36   20   22 2    
    37   20   33 1    
    38   21   22 1    
    39   22   34 1    
    40   23   35 1    
    41   23   36 1    
    42   24   37 1    
    43   24   38 1    
@<TRIPOS>SUBSTRUCTURE
     1 ****        5 TEMP              0 ****  ****    0 ROOT 
@<TRIPOS>NORMAL
@<TRIPOS>FF_PBC
FORCE_FIELD_SETUP_FEATURE Force Field Setup information
v1.0  0 0.000000 0.000000 0.000000 0.000000 0.000000 0.000000 NONE 0 0 0 0 1 0 0 0 0 0 0 0 0
