@<TRIPOS>MOLECULE
MOL001909
   27    28     1     1     0
SMALL
GASTEIGER


@<TRIPOS>ATOM
      1 O          -0.837515   -3.044751   -0.794552 O.3       1 <1>        -0.367450 
      2 C          -0.204847    0.352957    1.010449 C.3       1 <1>        -0.025454 
      3 C           0.865010    1.255974    0.331418 C.3       1 <1>        -0.034496 
      4 C           0.509237   -0.818471    0.287367 C.3       1 <1>        -0.012106 
      5 C           1.809140    0.027292    0.259703 C.3       1 <1>        -0.042583 
      6 C           0.464438    1.621311   -1.127002 C.3       1 <1>        -0.045916 
      7 C          -0.029364   -0.898154   -1.126677 C.2       1 <1>        -0.043576 
      8 C           0.187529    0.339197   -1.982259 C.3       1 <1>        -0.029062 
      9 C          -0.043390    0.295757    2.561102 C.3       1 <1>        -0.059015 
     10 C          -1.708970    0.590761    0.671454 C.3       1 <1>        -0.059015 
     11 C          -0.661776   -1.983736   -1.590927 C.2       1 <1>         0.035842 
     12 H          -1.298298   -3.764043   -1.214260 H         1 <1>         0.216510 
     13 H           1.218154    2.109581    0.933203 H         1 <1>         0.030640 
     14 H           0.563477   -1.766520    0.845742 H         1 <1>         0.035167 
     15 H           2.433151   -0.101054    1.157180 H         1 <1>         0.027398 
     16 H           2.445809   -0.068297   -0.633660 H         1 <1>         0.027398 
     17 H           1.281015    2.204069   -1.584772 H         1 <1>         0.027114 
     18 H          -0.416369    2.281915   -1.090485 H         1 <1>         0.027114 
     19 H           1.062750    0.121118   -2.615544 H         1 <1>         0.031086 
     20 H          -0.664424    0.513662   -2.659458 H         1 <1>         0.031086 
     21 H          -0.405373    1.237856    3.000093 H         1 <1>         0.023525 
     22 H          -0.648487   -0.530600    2.963827 H         1 <1>         0.023525 
     23 H           0.989163    0.147208    2.903541 H         1 <1>         0.023525 
     24 H          -2.311643   -0.201830    1.139827 H         1 <1>         0.023525 
     25 H          -1.956920    0.590140   -0.397363 H         1 <1>         0.023525 
     26 H          -2.022889    1.560072    1.086906 H         1 <1>         0.023525 
     27 H          -1.023724   -1.973690   -2.623147 H         1 <1>         0.088167 
@<TRIPOS>BOND
     1   11    1 1    
     2    1   12 1    
     3    2    3 1    
     4    4    2 1    
     5    2    9 1    
     6    2   10 1    
     7    5    3 1    
     8    6    3 1    
     9    3   13 1    
    10    4    5 1    
    11    7    4 1    
    12    4   14 1    
    13    5   15 1    
    14    5   16 1    
    15    8    6 1    
    16    6   17 1    
    17    6   18 1    
    18    7    8 1    
    19    7   11 2    
    20    8   19 1    
    21    8   20 1    
    22    9   21 1    
    23    9   22 1    
    24    9   23 1    
    25   10   24 1    
    26   10   25 1    
    27   10   26 1    
    28   11   27 1    
@<TRIPOS>SUBSTRUCTURE
     1 ****        2 TEMP              0 ****  ****    0 ROOT 
@<TRIPOS>NORMAL
@<TRIPOS>FF_PBC
FORCE_FIELD_SETUP_FEATURE Force Field Setup information
v1.0  0 0.000000 0.000000 0.000000 0.000000 0.000000 0.000000 NONE 0 0 0 0 1 0 0 0 0 0 0 0 0
