@<TRIPOS>MOLECULE
MOL001914
  174   184     1     1     0
SMALL
GASTEIGER


@<TRIPOS>ATOM
      1 O           2.239427    0.934083   -1.404458 O.3       1 <1>        -0.339971 
      2 O          -0.256566   -1.982406    0.415002 O.3       1 <1>        -0.302596 
      3 O           1.641056   -2.776108   -1.449220 O.3       1 <1>        -0.302711 
      4 O          -1.176364    0.786274    0.258774 O.3       1 <1>        -0.300278 
      5 O           0.665086    2.568535   -1.231439 O.3       1 <1>        -0.278289 
      6 O           5.221448   -0.248468   -0.145382 O.3       1 <1>        -0.308753 
      7 O          -1.826063   -2.699959    1.722830 O.2       1 <1>        -0.259212 
      8 O           1.723067   -4.904020   -1.148378 O.2       1 <1>        -0.259212 
      9 O          -3.349942    1.061955    0.308170 O.2       1 <1>        -0.259211 
     10 O          -1.242183    3.539271   -1.478301 O.2       1 <1>        -0.259141 
     11 O           6.920525    0.729207   -1.088957 O.2       1 <1>        -0.259223 
     12 O          -0.236710   -2.453954    6.530734 O.3       1 <1>        -0.271238 
     13 O           6.190279   -5.679248    1.275092 O.3       1 <1>        -0.271238 
     14 O          -4.306606    0.529092   -4.904571 O.3       1 <1>        -0.271238 
     15 O           0.824193    1.889943    4.546364 O.3       1 <1>        -0.357199 
     16 O           3.540983   -2.562076    4.011207 O.3       1 <1>        -0.357199 
     17 O          -2.145076   -3.564703   -3.217380 O.3       1 <1>        -0.357199 
     18 O          -3.410914    5.051537    2.878957 O.3       1 <1>        -0.271238 
     19 O           0.778954    0.247932    6.773722 O.3       1 <1>        -0.355377 
     20 O           5.875664   -4.073445    3.637193 O.3       1 <1>        -0.355377 
     21 O           1.292195    4.328090    3.981739 O.3       1 <1>        -0.357199 
     22 O          -3.197885   -2.130495   -5.376764 O.3       1 <1>        -0.355377 
     23 O          -1.287301    5.015146    4.795296 O.3       1 <1>        -0.355377 
     24 O           5.141641    3.937659   -4.607288 O.3       1 <1>        -0.271238 
     25 O           2.667127    4.762983   -0.395588 O.3       1 <1>        -0.357199 
     26 O           3.230659    5.521619   -3.067150 O.3       1 <1>        -0.355377 
     27 O          -0.799632   -2.524158    8.657298 O.2       1 <1>        -0.258823 
     28 O           7.568143   -6.866144    0.056014 O.2       1 <1>        -0.258823 
     29 O          -5.805203    0.477955   -6.509368 O.2       1 <1>        -0.258823 
     30 O          -5.572624    5.060531    3.011772 O.2       1 <1>        -0.258823 
     31 O           4.739683    4.765061   -6.580116 O.2       1 <1>        -0.258823 
     32 O          -2.421395    2.622647    9.004961 O.3       1 <1>        -0.357199 
     33 O          -4.879729    0.271904    5.453468 O.3       1 <1>        -0.357199 
     34 O           6.226268   -1.526879   -2.310091 O.3       1 <1>        -0.357199 
     35 O           6.294742   -5.753212   -4.852055 O.3       1 <1>        -0.357199 
     36 O          -6.749846   -3.804687   -2.416427 O.3       1 <1>        -0.357199 
     37 O          -6.299740   -4.708569   -7.229195 O.3       1 <1>        -0.357199 
     38 O          -4.471322    2.593723    7.085207 O.3       1 <1>        -0.355395 
     39 O           6.043901   -2.839653   -4.765630 O.3       1 <1>        -0.355395 
     40 O          -3.042382   -0.421363    3.231601 O.3       1 <1>        -0.357199 
     41 O          -7.500304    0.630494    1.424772 O.3       1 <1>        -0.357199 
     42 O          -6.872872   -5.605898   -4.554405 O.3       1 <1>        -0.355395 
     43 O          -5.482415   -1.303678    2.135019 O.3       1 <1>        -0.355395 
     44 O           0.040418    2.060440   -3.904820 O.3       1 <1>        -0.357199 
     45 O          -0.209276    5.901782   -6.983472 O.3       1 <1>        -0.357199 
     46 O          -1.525402    3.833108   -5.462275 O.3       1 <1>        -0.355395 
     47 C           0.658273   -0.936685    0.070580 C.3       1 <1>         0.128903 
     48 C           1.666845   -1.400355   -1.015083 C.3       1 <1>         0.125906 
     49 C          -0.021775    0.344052   -0.500806 C.3       1 <1>         0.148577 
     50 C           2.839082   -0.372559   -1.119024 C.3       1 <1>         0.114769 
     51 C           1.135032    1.387000   -0.553194 C.3       1 <1>         0.197745 
     52 C           3.803784   -0.328941    0.104698 C.3       1 <1>         0.086199 
     53 C          -0.848516   -1.978037    1.630699 C.2       1 <1>         0.294390 
     54 C           2.052109   -3.815250   -0.708164 C.2       1 <1>         0.294388 
     55 C          -2.404395    0.561231   -0.272643 C.2       1 <1>         0.294463 
     56 C          -0.374517    3.227738   -0.684042 C.2       1 <1>         0.296291 
     57 C          -0.423617   -1.288535    2.918272 C.ar      1 <1>         0.051530 
     58 C           2.926269   -3.868709    0.524054 C.ar      1 <1>         0.051530 
     59 C          -2.710082   -0.201359   -1.551082 C.ar      1 <1>         0.051532 
     60 C           5.729145    0.783635   -0.838969 C.2       1 <1>         0.294052 
     61 C          -0.579065    3.663633    0.758987 C.ar      1 <1>         0.051600 
     62 C           5.020165    2.013436   -1.363924 C.ar      1 <1>         0.051520 
     63 C          -0.493344   -2.133171    4.140374 C.ar      1 <1>        -0.015483 
     64 C           4.118247   -4.739129    0.386843 C.ar      1 <1>        -0.015483 
     65 C           0.000623    0.062674    3.079710 C.ar      1 <1>        -0.016369 
     66 C           2.692718   -3.218822    1.745753 C.ar      1 <1>        -0.016369 
     67 C          -3.374293    0.501715   -2.676587 C.ar      1 <1>        -0.015483 
     68 C          -2.408882   -1.572377   -1.718506 C.ar      1 <1>        -0.016369 
     69 C          -1.950961    4.037163    1.200697 C.ar      1 <1>        -0.015482 
     70 C           0.473139    3.796477    1.680601 C.ar      1 <1>        -0.016368 
     71 C          -0.135825   -1.636099    5.404822 C.ar      1 <1>         0.119349 
     72 C           5.083741   -4.831097    1.401525 C.ar      1 <1>         0.119349 
     73 C           0.400365    0.576227    4.411083 C.ar      1 <1>         0.105546 
     74 C           3.714473   -3.276642    2.822315 C.ar      1 <1>         0.105546 
     75 C          -3.606073   -0.146153   -3.901299 C.ar      1 <1>         0.119349 
     76 C          -2.562162   -2.242679   -3.030881 C.ar      1 <1>         0.105546 
     77 C           5.290604    2.393596   -2.770915 C.ar      1 <1>        -0.015483 
     78 C           4.192179    2.814679   -0.588678 C.ar      1 <1>        -0.016369 
     79 C           0.356946   -0.244330    5.536773 C.ar      1 <1>         0.133347 
     80 C           4.893071   -4.044647    2.644437 C.ar      1 <1>         0.133347 
     81 C          -2.167747    4.548021    2.502101 C.ar      1 <1>         0.119349 
     82 C           0.233352    4.250660    3.073868 C.ar      1 <1>         0.105546 
     83 C          -3.114481   -1.533749   -4.114111 C.ar      1 <1>         0.133347 
     84 C          -1.054178    4.605199    3.479673 C.ar      1 <1>         0.133347 
     85 C           4.758697    3.564800   -3.319422 C.ar      1 <1>         0.119349 
     86 C           3.548046    4.014860   -1.175066 C.ar      1 <1>         0.105546 
     87 C           3.828780    4.391219   -2.511183 C.ar      1 <1>         0.133347 
     88 C          -0.930572   -1.979480    7.575239 C.2       1 <1>         0.299009 
     89 C           6.810427   -5.912434    0.110087 C.2       1 <1>         0.299009 
     90 C          -5.275199   -0.111283   -5.580479 C.2       1 <1>         0.299009 
     91 C          -4.566852    4.387666    2.862889 C.2       1 <1>         0.299009 
     92 C          -1.866532   -0.793400    7.470910 C.ar      1 <1>         0.051876 
     93 C           6.625614   -5.087195   -1.146759 C.ar      1 <1>         0.051876 
     94 C           4.275063    4.282409   -5.563017 C.2       1 <1>         0.299009 
     95 C          -5.740900   -1.519963   -5.275205 C.ar      1 <1>         0.051876 
     96 C          -4.743020    2.894859    2.682589 C.ar      1 <1>         0.051876 
     97 C           2.769766    4.120873   -5.485556 C.ar      1 <1>         0.051876 
     98 C          -2.971895   -0.802567    6.484314 C.ar      1 <1>        -0.016357 
     99 C          -1.693365    0.317672    8.315683 C.ar      1 <1>        -0.016357 
    100 C           6.540450   -5.783672   -2.454488 C.ar      1 <1>        -0.016357 
    101 C           6.533399   -3.678066   -1.110185 C.ar      1 <1>        -0.016357 
    102 C          -5.860742   -2.484226   -6.395680 C.ar      1 <1>        -0.016357 
    103 C          -6.046060   -1.949607   -3.956894 C.ar      1 <1>        -0.016357 
    104 C          -6.029265    2.413739    2.118285 C.ar      1 <1>        -0.016357 
    105 C          -3.761077    1.961090    3.047022 C.ar      1 <1>        -0.016357 
    106 C          -2.589467    1.496670    8.193529 C.ar      1 <1>         0.105520 
    107 C          -3.833124    0.300201    6.375970 C.ar      1 <1>         0.105520 
    108 C           6.334657   -2.914289   -2.364570 C.ar      1 <1>         0.105520 
    109 C           6.362448   -5.066672   -3.642439 C.ar      1 <1>         0.105520 
    110 C          -6.445343   -3.359053   -3.706207 C.ar      1 <1>         0.105520 
    111 C          -6.220724   -3.816817   -6.157988 C.ar      1 <1>         0.105520 
    112 C           1.934328    5.082460   -6.248266 C.ar      1 <1>        -0.016357 
    113 C           2.137506    3.100029   -4.744503 C.ar      1 <1>        -0.016357 
    114 C          -3.628692    1.488742    7.239159 C.ar      1 <1>         0.132457 
    115 C           6.245227   -3.585810   -3.601002 C.ar      1 <1>         0.132457 
    116 C          -4.011852    0.508792    2.863351 C.ar      1 <1>         0.105520 
    117 C          -6.273780    1.048987    1.945864 C.ar      1 <1>         0.105520 
    118 C          -6.517997   -4.270876   -4.776096 C.ar      1 <1>         0.132457 
    119 C          -5.233824    0.059660    2.321683 C.ar      1 <1>         0.132457 
    120 C           0.659158    3.022553   -4.696609 C.ar      1 <1>         0.105520 
    121 C           0.541608    4.988603   -6.242765 C.ar      1 <1>         0.105520 
    122 C          -0.129533    3.926560   -5.452095 C.ar      1 <1>         0.132457 
    123 H           1.266160   -0.706859    0.949078 H         1 <1>         0.065725 
    124 H           1.206092   -1.220263   -2.001016 H         1 <1>         0.065613 
    125 H          -0.311580    0.256978   -1.559006 H         1 <1>         0.068056 
    126 H           3.470424   -0.658902   -1.976714 H         1 <1>         0.064721 
    127 H           1.502551    1.601668    0.455404 H         1 <1>         0.094298 
    128 H           3.798235   -1.327503    0.545460 H         1 <1>         0.059272 
    129 H           3.480537    0.362988    0.890603 H         1 <1>         0.059272 
    130 H          -0.833828   -3.160028    4.065665 H         1 <1>         0.065206 
    131 H           4.214367   -5.331824   -0.513124 H         1 <1>         0.065206 
    132 H           0.039911    0.762389    2.262397 H         1 <1>         0.065181 
    133 H           1.782096   -2.671738    1.915124 H         1 <1>         0.065181 
    134 H          -3.707451    1.527243   -2.553611 H         1 <1>         0.065206 
    135 H          -2.057921   -2.159310   -0.894614 H         1 <1>         0.065181 
    136 H          -2.787778    3.953403    0.514207 H         1 <1>         0.065206 
    137 H           1.495833    3.593362    1.404237 H         1 <1>         0.065181 
    138 H           5.929749    1.770800   -3.386943 H         1 <1>         0.065206 
    139 H           4.021383    2.585437    0.454552 H         1 <1>         0.065181 
    140 H           1.650596    2.058165    4.109318 H         1 <1>         0.217423 
    141 H           2.645188   -2.288753    4.168429 H         1 <1>         0.217423 
    142 H          -1.576726   -3.887446   -2.525440 H         1 <1>         0.217423 
    143 H           1.257780   -0.407666    7.269281 H         1 <1>         0.217502 
    144 H           5.634117   -3.549723    4.394626 H         1 <1>         0.217502 
    145 H           2.080946    4.689157    3.595605 H         1 <1>         0.217423 
    146 H          -2.849707   -3.018102   -5.377685 H         1 <1>         0.217502 
    147 H          -2.183986    5.304170    4.928274 H         1 <1>         0.217502 
    148 H           2.054532    5.265980   -0.922959 H         1 <1>         0.217423 
    149 H           3.508808    6.313891   -2.620237 H         1 <1>         0.217502 
    150 H          -3.123007   -1.670426    5.849235 H         1 <1>         0.065181 
    151 H          -0.897625    0.311333    9.052250 H         1 <1>         0.065181 
    152 H           6.614234   -6.862883   -2.499080 H         1 <1>         0.065181 
    153 H           6.608500   -3.141493   -0.169687 H         1 <1>         0.065181 
    154 H          -5.657895   -2.155988   -7.407938 H         1 <1>         0.065181 
    155 H          -5.980834   -1.249628   -3.130398 H         1 <1>         0.065181 
    156 H          -6.799522    3.125919    1.835700 H         1 <1>         0.065181 
    157 H          -2.819605    2.284967    3.474952 H         1 <1>         0.065181 
    158 H           2.402056    5.872102   -6.826828 H         1 <1>         0.065181 
    159 H           2.706900    2.347968   -4.208829 H         1 <1>         0.065181 
    160 H          -1.656566    2.577808    9.567726 H         1 <1>         0.217423 
    161 H          -5.423466    1.051961    5.518267 H         1 <1>         0.217423 
    162 H           6.359684   -1.120348   -3.160407 H         1 <1>         0.217423 
    163 H           6.792776   -5.317592   -5.535526 H         1 <1>         0.217423 
    164 H          -6.760295   -3.116347   -1.760519 H         1 <1>         0.217423 
    165 H          -6.493435   -5.592089   -6.930241 H         1 <1>         0.217423 
    166 H          -4.237145    3.298706    7.682055 H         1 <1>         0.217501 
    167 H           5.478548   -3.290763   -5.381191 H         1 <1>         0.217501 
    168 H          -2.529368   -0.079382    3.951745 H         1 <1>         0.217423 
    169 H          -7.578862   -0.318750    1.436125 H         1 <1>         0.217423 
    170 H          -7.060493   -5.772905   -3.634913 H         1 <1>         0.217501 
    171 H          -4.773789   -1.833812    2.487891 H         1 <1>         0.217501 
    172 H           0.268448    2.235844   -2.997100 H         1 <1>         0.217423 
    173 H          -1.143396    5.791356   -6.822656 H         1 <1>         0.217423 
    174 H          -1.834125    3.067801   -4.984367 H         1 <1>         0.217501 
@<TRIPOS>BOND
     1   50    1 1    
     2    1   51 1    
     3   47    2 1    
     4    2   53 1    
     5   48    3 1    
     6    3   54 1    
     7   49    4 1    
     8    4   55 1    
     9   51    5 1    
    10    5   56 1    
    11    6   52 1    
    12   60    6 1    
    13   53    7 2    
    14   54    8 2    
    15   55    9 2    
    16   56   10 2    
    17   60   11 2    
    18   71   12 1    
    19   12   88 1    
    20   72   13 1    
    21   13   89 1    
    22   75   14 1    
    23   14   90 1    
    24   73   15 1    
    25   15  140 1    
    26   74   16 1    
    27   16  141 1    
    28   76   17 1    
    29   17  142 1    
    30   81   18 1    
    31   18   91 1    
    32   79   19 1    
    33   19  143 1    
    34   80   20 1    
    35   20  144 1    
    36   82   21 1    
    37   21  145 1    
    38   83   22 1    
    39   22  146 1    
    40   84   23 1    
    41   23  147 1    
    42   24   85 1    
    43   94   24 1    
    44   86   25 1    
    45   25  148 1    
    46   87   26 1    
    47   26  149 1    
    48   88   27 2    
    49   89   28 2    
    50   90   29 2    
    51   91   30 2    
    52   94   31 2    
    53  106   32 1    
    54   32  160 1    
    55  107   33 1    
    56   33  161 1    
    57  108   34 1    
    58   34  162 1    
    59  109   35 1    
    60   35  163 1    
    61  110   36 1    
    62   36  164 1    
    63  111   37 1    
    64   37  165 1    
    65  114   38 1    
    66   38  166 1    
    67  115   39 1    
    68   39  167 1    
    69  116   40 1    
    70   40  168 1    
    71  117   41 1    
    72   41  169 1    
    73  118   42 1    
    74   42  170 1    
    75  119   43 1    
    76   43  171 1    
    77  120   44 1    
    78   44  172 1    
    79  121   45 1    
    80   45  173 1    
    81  122   46 1    
    82   46  174 1    
    83   48   47 1    
    84   47   49 1    
    85   47  123 1    
    86   50   48 1    
    87   48  124 1    
    88   51   49 1    
    89   49  125 1    
    90   52   50 1    
    91   50  126 1    
    92   51  127 1    
    93   52  128 1    
    94   52  129 1    
    95   53   57 1    
    96   54   58 1    
    97   55   59 1    
    98   56   61 1    
    99   57   63 1    
   100   57   65 2    
   101   58   64 1    
   102   58   66 2    
   103   59   67 1    
   104   59   68 2    
   105   62   60 1    
   106   61   69 1    
   107   61   70 2    
   108   77   62 1    
   109   62   78 2    
   110   63   71 2    
   111   63  130 1    
   112   64   72 2    
   113   64  131 1    
   114   65   73 1    
   115   65  132 1    
   116   66   74 1    
   117   66  133 1    
   118   67   75 2    
   119   67  134 1    
   120   68   76 1    
   121   68  135 1    
   122   69   81 2    
   123   69  136 1    
   124   70   82 1    
   125   70  137 1    
   126   71   79 1    
   127   72   80 1    
   128   73   79 2    
   129   74   80 2    
   130   75   83 1    
   131   76   83 2    
   132   85   77 2    
   133   77  138 1    
   134   86   78 1    
   135   78  139 1    
   136   81   84 1    
   137   82   84 2    
   138   85   87 1    
   139   87   86 2    
   140   88   92 1    
   141   89   93 1    
   142   90   95 1    
   143   91   96 1    
   144   92   98 1    
   145   92   99 2    
   146   93  100 1    
   147   93  101 2    
   148   97   94 1    
   149   95  102 1    
   150   95  103 2    
   151   96  104 1    
   152   96  105 2    
   153   97  112 1    
   154  113   97 2    
   155   98  107 2    
   156   98  150 1    
   157   99  106 1    
   158   99  151 1    
   159  100  109 2    
   160  100  152 1    
   161  101  108 1    
   162  101  153 1    
   163  102  111 2    
   164  102  154 1    
   165  103  110 1    
   166  103  155 1    
   167  104  117 2    
   168  104  156 1    
   169  105  116 1    
   170  105  157 1    
   171  106  114 2    
   172  107  114 1    
   173  108  115 2    
   174  109  115 1    
   175  110  118 2    
   176  111  118 1    
   177  112  121 2    
   178  112  158 1    
   179  120  113 1    
   180  113  159 1    
   181  116  119 2    
   182  117  119 1    
   183  120  122 2    
   184  121  122 1    
@<TRIPOS>SUBSTRUCTURE
     1 ****        2 TEMP              0 ****  ****    0 ROOT 
@<TRIPOS>NORMAL
@<TRIPOS>FF_PBC
FORCE_FIELD_SETUP_FEATURE Force Field Setup information
v1.0  0 0.000000 0.000000 0.000000 0.000000 0.000000 0.000000 NONE 0 0 0 0 1 0 0 0 0 0 0 0 0
