@<TRIPOS>MOLECULE
MOL004643
   87    91     1     1     0
SMALL
GASTEIGER


@<TRIPOS>ATOM
      1 O          -2.627366    1.612757   -0.937072 O.3       1 <1>        -0.375443 
      2 O          -5.156084   -2.283231    2.317772 O.3       1 <1>        -0.391248 
      3 O          -0.191959   -1.628953   -2.289154 O.3       1 <1>        -0.391114 
      4 O           1.645370   -2.737074   -4.202437 O.3       1 <1>        -0.394355 
      5 C           0.288813   -0.328137    2.656366 C.3       1 <1>        -0.046184 
      6 C           0.897892    0.669064   -1.096375 C.2       1 <1>        -0.060744 
      7 C          -0.335064    1.106257   -1.378513 C.2       1 <1>        -0.055289 
      8 C           0.297721    0.667111    1.444720 C.3       1 <1>        -0.016923 
      9 C          -1.182539    1.085566    1.014634 C.3       1 <1>         0.000718 
     10 C          -2.404826    0.997427    2.057290 C.3       1 <1>        -0.022592 
     11 C           1.213582    0.059095    0.263700 C.3       1 <1>        -0.002626 
     12 C          -2.214853   -0.044854    3.229381 C.3       1 <1>        -0.027753 
     13 C          -0.750027   -0.008327    3.752466 C.3       1 <1>        -0.048607 
     14 C          -2.939775   -1.449531    3.095266 C.3       1 <1>        -0.005588 
     15 C           1.940202    0.593062   -2.213769 C.3       1 <1>        -0.008707 
     16 C          -1.506506    0.814564   -0.479912 C.3       1 <1>         0.080545 
     17 C           2.138181   -0.944922   -2.544194 C.3       1 <1>         0.026310 
     18 C           0.979630   -1.443792   -0.148299 C.3       1 <1>        -0.016608 
     19 C          -3.781077    0.679884    1.363623 C.3       1 <1>        -0.044638 
     20 C           1.113473   -1.790380   -1.682404 C.3       1 <1>         0.064286 
     21 C           0.982489    1.987550    1.973778 C.3       1 <1>        -0.058408 
     22 C          -4.493642   -1.189812    2.987513 C.3       1 <1>         0.060637 
     23 C          -2.617752    2.422525    2.710225 C.3       1 <1>        -0.058927 
     24 C          -4.877283    0.171130    2.332285 C.3       1 <1>        -0.025830 
     25 C           2.717817    0.117036    0.716998 C.3       1 <1>        -0.055240 
     26 C           3.174677    1.555666   -2.166004 C.3       1 <1>        -0.040647 
     27 C           3.613693   -1.452819   -2.376569 C.3       1 <1>        -0.041883 
     28 C           4.395796    1.063385   -2.992343 C.3       1 <1>        -0.034297 
     29 C           4.756689   -0.390678   -2.532388 C.3       1 <1>        -0.047178 
     30 C          -2.739890   -2.322637    4.382793 C.3       1 <1>        -0.057190 
     31 C          -2.436585   -2.362002    1.924393 C.3       1 <1>        -0.057190 
     32 C           1.752887   -1.306038   -4.033110 C.3       1 <1>         0.052730 
     33 C           5.628087    1.975226   -2.667541 C.3       1 <1>        -0.059793 
     34 C           4.131667    1.215888   -4.527883 C.3       1 <1>        -0.059793 
     35 C          -3.305531    1.100559   -2.106519 C.3       1 <1>         0.037218 
     36 H          -6.106991   -2.230123    2.311099 H         1 <1>         0.209800 
     37 H          -0.852859   -2.244323   -1.986422 H         1 <1>         0.209802 
     38 H           1.397162   -3.006356   -5.082498 H         1 <1>         0.209421 
     39 H           0.128933   -1.354771    2.342498 H         1 <1>         0.027097 
     40 H           1.259886   -0.342218    3.173399 H         1 <1>         0.027097 
     41 H          -0.543003    1.621451   -2.313710 H         1 <1>         0.059746 
     42 H          -1.101014    2.163901    0.809727 H         1 <1>         0.033983 
     43 H          -2.765518    0.355985    4.098102 H         1 <1>         0.031211 
     44 H          -0.616166   -0.700652    4.596960 H         1 <1>         0.026846 
     45 H          -0.511856    0.984733    4.161148 H         1 <1>         0.026846 
     46 H           1.440777    0.974067   -3.115714 H         1 <1>         0.035287 
     47 H          -1.725283   -0.252201   -0.597672 H         1 <1>         0.064325 
     48 H           1.644876   -2.115291    0.419158 H         1 <1>         0.029875 
     49 H          -0.035725   -1.740895    0.134889 H         1 <1>         0.029875 
     50 H          -4.185342    1.575187    0.863767 H         1 <1>         0.027150 
     51 H          -3.717087   -0.104945    0.604426 H         1 <1>         0.027150 
     52 H           1.381483   -2.859296   -1.778399 H         1 <1>         0.059982 
     53 H           1.267028    2.626063    1.122016 H         1 <1>         0.023543 
     54 H           0.331774    2.593275    2.608787 H         1 <1>         0.023543 
     55 H           1.870432    1.819572    2.599923 H         1 <1>         0.023543 
     56 H          -4.924567   -1.158367    4.006471 H         1 <1>         0.059852 
     57 H          -1.770192    2.750268    3.317666 H         1 <1>         0.023526 
     58 H          -3.482571    2.472740    3.383340 H         1 <1>         0.023526 
     59 H          -2.789942    3.196939    1.945983 H         1 <1>         0.023526 
     60 H          -5.823791    0.062506    1.776224 H         1 <1>         0.029037 
     61 H          -5.078539    0.922611    3.109546 H         1 <1>         0.029037 
     62 H           3.116450    1.116588    0.913398 H         1 <1>         0.023830 
     63 H           2.893471   -0.472534    1.625597 H         1 <1>         0.023830 
     64 H           3.375035   -0.318119   -0.027302 H         1 <1>         0.023830 
     65 H           2.890662    2.565551   -2.511746 H         1 <1>         0.027632 
     66 H           3.525529    1.711531   -1.149083 H         1 <1>         0.027632 
     67 H           3.818941   -2.251806   -3.108815 H         1 <1>         0.027247 
     68 H           3.716194   -1.992495   -1.422188 H         1 <1>         0.027247 
     69 H           5.227954   -0.310493   -1.539390 H         1 <1>         0.027063 
     70 H           5.548748   -0.777790   -3.195325 H         1 <1>         0.027063 
     71 H          -1.715636   -2.710641    4.482266 H         1 <1>         0.023587 
     72 H          -2.973555   -1.756907    5.298073 H         1 <1>         0.023587 
     73 H          -3.407735   -3.198215    4.347684 H         1 <1>         0.023587 
     74 H          -3.108705   -3.214130    1.752908 H         1 <1>         0.023587 
     75 H          -2.343977   -1.826890    0.980456 H         1 <1>         0.023587 
     76 H          -1.469498   -2.830432    2.136639 H         1 <1>         0.023587 
     77 H           2.523028   -0.981249   -4.743795 H         1 <1>         0.056353 
     78 H           0.794252   -0.850835   -4.336818 H         1 <1>         0.056353 
     79 H           5.412929    3.030765   -2.896174 H         1 <1>         0.023499 
     80 H           5.914356    1.930587   -1.605314 H         1 <1>         0.023499 
     81 H           6.497913    1.661950   -3.265844 H         1 <1>         0.023499 
     82 H           4.449124    2.203525   -4.895639 H         1 <1>         0.023499 
     83 H           3.071034    1.156500   -4.791430 H         1 <1>         0.023499 
     84 H           4.689167    0.460768   -5.101711 H         1 <1>         0.023499 
     85 H          -3.765416    0.121607   -1.902482 H         1 <1>         0.052375 
     86 H          -4.111361    1.809347   -2.346733 H         1 <1>         0.052375 
     87 H          -2.660292    1.006698   -2.991329 H         1 <1>         0.052375 
@<TRIPOS>BOND
     1   16    1 1    
     2    1   35 1    
     3   22    2 1    
     4    2   36 1    
     5   20    3 1    
     6    3   37 1    
     7   32    4 1    
     8    4   38 1    
     9    8    5 1    
    10    5   13 1    
    11    5   39 1    
    12    5   40 1    
    13    6    7 2    
    14    6   11 1    
    15   15    6 1    
    16    7   16 1    
    17    7   41 1    
    18    8    9 1    
    19   11    8 1    
    20    8   21 1    
    21    9   10 1    
    22   16    9 1    
    23    9   42 1    
    24   10   12 1    
    25   10   19 1    
    26   10   23 1    
    27   11   18 1    
    28   11   25 1    
    29   13   12 1    
    30   12   14 1    
    31   12   43 1    
    32   13   44 1    
    33   13   45 1    
    34   14   22 1    
    35   14   30 1    
    36   14   31 1    
    37   17   15 1    
    38   15   26 1    
    39   15   46 1    
    40   16   47 1    
    41   17   20 1    
    42   17   27 1    
    43   17   32 1    
    44   18   20 1    
    45   18   48 1    
    46   18   49 1    
    47   19   24 1    
    48   19   50 1    
    49   19   51 1    
    50   20   52 1    
    51   21   53 1    
    52   21   54 1    
    53   21   55 1    
    54   22   24 1    
    55   22   56 1    
    56   23   57 1    
    57   23   58 1    
    58   23   59 1    
    59   24   60 1    
    60   24   61 1    
    61   25   62 1    
    62   25   63 1    
    63   25   64 1    
    64   26   28 1    
    65   26   65 1    
    66   26   66 1    
    67   27   29 1    
    68   27   67 1    
    69   27   68 1    
    70   28   29 1    
    71   28   33 1    
    72   28   34 1    
    73   29   69 1    
    74   29   70 1    
    75   30   71 1    
    76   30   72 1    
    77   30   73 1    
    78   31   74 1    
    79   31   75 1    
    80   31   76 1    
    81   32   77 1    
    82   32   78 1    
    83   33   79 1    
    84   33   80 1    
    85   33   81 1    
    86   34   82 1    
    87   34   83 1    
    88   34   84 1    
    89   35   85 1    
    90   35   86 1    
    91   35   87 1    
@<TRIPOS>SUBSTRUCTURE
     1 ****        5 TEMP              0 ****  ****    0 ROOT 
@<TRIPOS>NORMAL
@<TRIPOS>FF_PBC
FORCE_FIELD_SETUP_FEATURE Force Field Setup information
v1.0  0 0.000000 0.000000 0.000000 0.000000 0.000000 0.000000 NONE 0 0 0 0 1 0 0 0 0 0 0 0 0
