@<TRIPOS>MOLECULE
MOL004967
   23    22     1     1     0
SMALL
GASTEIGER


@<TRIPOS>ATOM
      1 C           0.246504   -0.288386   -0.068847 C.3       1 <1>        -0.035370 
      2 C           1.389425    0.757294   -0.313835 C.3       1 <1>        -0.050731 
      3 C          -1.152798    0.386068   -0.264961 C.3       1 <1>        -0.050731 
      4 C           0.450330   -1.435400   -1.106310 C.3       1 <1>        -0.059828 
      5 C           0.370406   -0.888904    1.364922 C.3       1 <1>        -0.059828 
      6 C           1.295753    2.083986    0.490899 C.3       1 <1>        -0.064791 
      7 C          -2.380623   -0.566052   -0.270835 C.3       1 <1>        -0.064791 
      8 H           2.359748    0.292227   -0.076685 H         1 <1>         0.026779 
      9 H           1.413050    1.031625   -1.381017 H         1 <1>         0.026779 
     10 H          -1.321436    1.111694    0.546327 H         1 <1>         0.026779 
     11 H          -1.153365    0.939353   -1.218475 H         1 <1>         0.026779 
     12 H          -0.224057   -2.282139   -0.917660 H         1 <1>         0.023498 
     13 H           1.479682   -1.822101   -1.060405 H         1 <1>         0.023498 
     14 H           0.267113   -1.069835   -2.127683 H         1 <1>         0.023498 
     15 H           1.392248   -1.257371    1.545006 H         1 <1>         0.023498 
     16 H           0.129397   -0.143393    2.134846 H         1 <1>         0.023498 
     17 H          -0.312657   -1.739979    1.499688 H         1 <1>         0.023498 
     18 H           2.195332    2.693767    0.302710 H         1 <1>         0.022994 
     19 H           0.423758    2.675104    0.177384 H         1 <1>         0.022994 
     20 H           1.234141    1.897231    1.572045 H         1 <1>         0.022994 
     21 H          -3.302404    0.029450   -0.363698 H         1 <1>         0.022994 
     22 H          -2.349895   -1.258325   -1.123772 H         1 <1>         0.022994 
     23 H          -2.449552   -1.146114    0.660355 H         1 <1>         0.022994 
@<TRIPOS>BOND
     1    1    2 1    
     2    1    3 1    
     3    1    4 1    
     4    1    5 1    
     5    2    6 1    
     6    2    8 1    
     7    2    9 1    
     8    3    7 1    
     9    3   10 1    
    10    3   11 1    
    11    4   12 1    
    12    4   13 1    
    13    4   14 1    
    14    5   15 1    
    15    5   16 1    
    16    5   17 1    
    17    6   18 1    
    18    6   19 1    
    19    6   20 1    
    20    7   21 1    
    21    7   22 1    
    22    7   23 1    
@<TRIPOS>SUBSTRUCTURE
     1 ****        1 TEMP              0 ****  ****    0 ROOT 
@<TRIPOS>NORMAL
@<TRIPOS>FF_PBC
FORCE_FIELD_SETUP_FEATURE Force Field Setup information
v1.0  0 0.000000 0.000000 0.000000 0.000000 0.000000 0.000000 NONE 0 0 0 0 1 0 0 0 0 0 0 0 0
