@<TRIPOS>MOLECULE
MOL001452
   16    16     1     1     0
SMALL
GASTEIGER


@<TRIPOS>ATOM
      1 C           2.543150   -1.340113    0.001959 C.2       1 <1>         0.150280 
      2 C           1.240228   -0.570850    0.001895 C.ar      1 <1>         0.016769 
      3 C          -0.051010   -1.300951   -0.012017 C.ar      1 <1>        -0.019200 
      4 C          -1.269037   -0.604063   -0.012211 C.ar      1 <1>         0.102844 
      5 C          -1.278840    0.881056    0.001225 C.ar      1 <1>         0.102223 
      6 C          -0.042946    1.589760    0.014784 C.ar      1 <1>        -0.028753 
      7 C           1.238299    0.844402    0.015069 C.ar      1 <1>        -0.048947 
      8 O           3.612761   -0.752853    0.012284 O.2       1 <1>        -0.295699 
      9 O          -2.505477    1.553424    0.000300 O.3       1 <1>        -0.357274 
     10 O          -2.467377   -1.319188   -0.025112 O.3       1 <1>        -0.357261 
     11 H           2.545517   -2.429358   -0.007212 H         1 <1>         0.108139 
     12 H          -0.064088   -2.385095   -0.022155 H         1 <1>         0.065091 
     13 H          -0.026950    2.674352    0.024967 H         1 <1>         0.064422 
     14 H           2.175237    1.392006    0.025448 H         1 <1>         0.062522 
     15 H          -2.431083    2.501223    0.002461 H         1 <1>         0.217422 
     16 H          -3.218285   -0.733749   -0.021681 H         1 <1>         0.217422 
@<TRIPOS>BOND
     1    1    2 1    
     2    1    8 2    
     3    1   11 1    
     4    2    3 1    
     5    2    7 2    
     6    3    4 2    
     7    3   12 1    
     8    4    5 1    
     9    4   10 1    
    10    5    6 2    
    11    5    9 1    
    12    6    7 1    
    13    6   13 1    
    14    7   14 1    
    15    9   15 1    
    16   10   16 1    
@<TRIPOS>SUBSTRUCTURE
     1 ****        1 TEMP              0 ****  ****    0 ROOT 
@<TRIPOS>NORMAL
@<TRIPOS>FF_PBC
FORCE_FIELD_SETUP_FEATURE Force Field Setup information
v1.0  0 0.000000 0.000000 0.000000 0.000000 0.000000 0.000000 NONE 0 0 0 0 1 0 0 0 0 0 0 0 0
