@<TRIPOS>MOLECULE
MOL000131
   52    51     1     1     0
SMALL
GASTEIGER


@<TRIPOS>ATOM
      1 C           1.414857   -0.992269   -0.065596 C.3       1 <1>        -0.049616 
      2 C           0.421432   -1.961237   -0.763161 C.3       1 <1>        -0.034751 
      3 C           1.392149    0.417400   -0.717400 C.3       1 <1>        -0.052779 
      4 C           0.419442   -3.324385   -0.108776 C.2       1 <1>        -0.087640 
      5 C           2.429424    1.363343   -0.051982 C.3       1 <1>        -0.053036 
      6 C          -0.378443   -4.343857   -0.462457 C.2       1 <1>        -0.084202 
      7 C           2.406670    2.775264   -0.699589 C.3       1 <1>        -0.052596 
      8 C          -1.415738   -4.318171   -1.559945 C.3       1 <1>        -0.016545 
      9 C           3.476987    3.705715   -0.065516 C.3       1 <1>        -0.044061 
     10 C          -2.714372   -4.861723   -1.005028 C.2       1 <1>        -0.084202 
     11 C           3.459724    5.116938   -0.713520 C.3       1 <1>         0.033006 
     12 C          -3.751777   -4.151229   -0.532338 C.2       1 <1>        -0.087640 
     13 C           4.511331    6.029461   -0.136223 C.2       1 <1>         0.259588 
     14 C          -3.837400   -2.644252   -0.456597 C.3       1 <1>        -0.034751 
     15 O           4.590920    7.235630   -0.701902 O.3       1 <1>        -0.331267 
     16 O           5.239181    5.690121    0.783985 O.2       1 <1>        -0.265177 
     17 C          -3.174918   -2.153945    0.857618 C.3       1 <1>        -0.049624 
     18 C          -3.151368   -0.602781    0.931809 C.3       1 <1>        -0.053028 
     19 C          -2.396555   -0.106769    2.194491 C.3       1 <1>        -0.055902 
     20 C          -2.356583    1.442439    2.253623 C.3       1 <1>        -0.065276 
     21 H           1.148009   -0.901987    1.000421 H         1 <1>         0.026822 
     22 H           2.432213   -1.411716   -0.133900 H         1 <1>         0.026822 
     23 H           0.707792   -2.077959   -1.820074 H         1 <1>         0.030732 
     24 H          -0.584875   -1.520436   -0.718627 H         1 <1>         0.030732 
     25 H           1.622646    0.324368   -1.791342 H         1 <1>         0.026538 
     26 H           0.382834    0.849832   -0.616002 H         1 <1>         0.026538 
     27 H           1.120527   -3.497353    0.709823 H         1 <1>         0.056905 
     28 H           2.207165    1.451748    1.024465 H         1 <1>         0.026529 
     29 H           3.437019    0.929561   -0.161906 H         1 <1>         0.026529 
     30 H          -0.276678   -5.284350    0.082879 H         1 <1>         0.057203 
     31 H           2.602267    2.682534   -1.780586 H         1 <1>         0.026540 
     32 H           1.407187    3.221130   -0.565818 H         1 <1>         0.026540 
     33 H          -1.072708   -4.987677   -2.364660 H         1 <1>         0.034961 
     34 H          -1.532009   -3.326336   -2.011967 H         1 <1>         0.034961 
     35 H           3.287616    3.801384    1.016675 H         1 <1>         0.027004 
     36 H           4.476415    3.260579   -0.204031 H         1 <1>         0.027004 
     37 H          -2.801104   -5.949995   -0.975961 H         1 <1>         0.057203 
     38 H           3.638384    5.031946   -1.796832 H         1 <1>         0.036600 
     39 H           2.475725    5.586441   -0.557660 H         1 <1>         0.036600 
     40 H          -4.613144   -4.705098   -0.151706 H         1 <1>         0.056905 
     41 H          -4.896604   -2.339256   -0.465906 H         1 <1>         0.030732 
     42 H          -3.364137   -2.168941   -1.326850 H         1 <1>         0.030732 
     43 H           5.270455    7.768163   -0.302420 H         1 <1>         0.220208 
     44 H          -2.145248   -2.540386    0.907791 H         1 <1>         0.026822 
     45 H          -3.727924   -2.560710    1.720651 H         1 <1>         0.026822 
     46 H          -4.187241   -0.225935    0.946882 H         1 <1>         0.026529 
     47 H          -2.651853   -0.197130    0.037256 H         1 <1>         0.026529 
     48 H          -1.362595   -0.489913    2.180829 H         1 <1>         0.026265 
     49 H          -2.896693   -0.493206    3.098256 H         1 <1>         0.026265 
     50 H          -1.818758    1.773237    3.156050 H         1 <1>         0.022978 
     51 H          -3.378251    1.852048    2.285003 H         1 <1>         0.022978 
     52 H          -1.839521    1.848062    1.369925 H         1 <1>         0.022978 
@<TRIPOS>BOND
     1    1    2 1    
     2    1    3 1    
     3    1   21 1    
     4    1   22 1    
     5    2    4 1    
     6    2   23 1    
     7    2   24 1    
     8    3    5 1    
     9    3   25 1    
    10    3   26 1    
    11    4    6 2    
    12    4   27 1    
    13    5    7 1    
    14    5   28 1    
    15    5   29 1    
    16    6    8 1    
    17    6   30 1    
    18    7    9 1    
    19    7   31 1    
    20    7   32 1    
    21    8   10 1    
    22    8   33 1    
    23    8   34 1    
    24    9   11 1    
    25    9   35 1    
    26    9   36 1    
    27   10   12 2    
    28   10   37 1    
    29   11   13 1    
    30   11   38 1    
    31   11   39 1    
    32   12   14 1    
    33   12   40 1    
    34   13   15 1    
    35   13   16 2    
    36   14   17 1    
    37   14   41 1    
    38   14   42 1    
    39   15   43 1    
    40   17   18 1    
    41   17   44 1    
    42   17   45 1    
    43   18   19 1    
    44   18   46 1    
    45   18   47 1    
    46   19   20 1    
    47   19   48 1    
    48   19   49 1    
    49   20   50 1    
    50   20   51 1    
    51   20   52 1    
@<TRIPOS>SUBSTRUCTURE
     1 ****        1 TEMP              0 ****  ****    0 ROOT 
@<TRIPOS>NORMAL
@<TRIPOS>FF_PBC
FORCE_FIELD_SETUP_FEATURE Force Field Setup information
v1.0  0 0.000000 0.000000 0.000000 0.000000 0.000000 0.000000 NONE 0 0 0 0 1 0 0 0 0 0 0 0 0
