@<TRIPOS>MOLECULE
MOL004602
   41    41     1     1     0
SMALL
GASTEIGER


@<TRIPOS>ATOM
      1 C          -2.250643    0.720866   -0.120792 C.3       1 <1>        -0.053046 
      2 C          -2.116751    1.930781   -1.098075 C.3       1 <1>        -0.052673 
      3 C          -1.664171   -0.586982   -0.718553 C.3       1 <1>        -0.053057 
      4 C          -1.689723   -1.792667    0.274007 C.3       1 <1>        -0.053057 
      5 C          -0.698735   -2.933276   -0.127827 C.3       1 <1>        -0.053057 
      6 C           0.721350   -2.829068    0.517189 C.3       1 <1>        -0.053048 
      7 C           1.355427   -1.427841    0.331402 C.3       1 <1>        -0.052805 
      8 C           2.802622   -1.258464    0.854685 C.3       1 <1>        -0.050074 
      9 C          -0.863800    2.851154   -0.925694 C.3       1 <1>        -0.046375 
     10 C           0.546103    2.229040   -1.187635 C.3       1 <1>         0.005831 
     11 C           1.245073    1.677558    0.037530 C.2       1 <1>         0.133624 
     12 C           2.676488    1.187362   -0.105270 C.3       1 <1>         0.008401 
     13 C           3.187032    0.247621    1.038740 C.3       1 <1>        -0.037215 
     14 O           0.685927    1.675666    1.122058 O.2       1 <1>        -0.297401 
     15 C           4.730636    0.358445    1.196876 C.3       1 <1>        -0.062029 
     16 H          -3.315885    0.518030    0.084181 H         1 <1>         0.026529 
     17 H          -1.770191    0.970768    0.837598 H         1 <1>         0.026529 
     18 H          -2.178081    1.579668   -2.141167 H         1 <1>         0.026539 
     19 H          -2.993110    2.581556   -0.928159 H         1 <1>         0.026539 
     20 H          -2.224031   -0.866267   -1.627490 H         1 <1>         0.026528 
     21 H          -0.653413   -0.348749   -1.044843 H         1 <1>         0.026528 
     22 H          -2.721732   -2.183752    0.271698 H         1 <1>         0.026528 
     23 H          -1.478690   -1.475134    1.306960 H         1 <1>         0.026528 
     24 H          -0.609355   -2.963073   -1.226108 H         1 <1>         0.026528 
     25 H          -1.119875   -3.902610    0.190612 H         1 <1>         0.026528 
     26 H           1.383254   -3.589700    0.070611 H         1 <1>         0.026529 
     27 H           0.646033   -3.038403    1.597813 H         1 <1>         0.026529 
     28 H           1.373521   -1.189756   -0.742467 H         1 <1>         0.026537 
     29 H           0.723684   -0.722937    0.883550 H         1 <1>         0.026537 
     30 H           3.485947   -1.749355    0.141899 H         1 <1>         0.026796 
     31 H           2.906295   -1.772781    1.824541 H         1 <1>         0.026796 
     32 H          -0.882161    3.323759    0.069964 H         1 <1>         0.026927 
     33 H          -0.998910    3.663827   -1.662168 H         1 <1>         0.026927 
     34 H           0.497493    1.486192   -1.996973 H         1 <1>         0.034152 
     35 H           1.213125    3.037355   -1.530731 H         1 <1>         0.034152 
     36 H           3.267009    2.116193   -0.082449 H         1 <1>         0.034414 
     37 H           2.849964    0.716184   -1.084503 H         1 <1>         0.034414 
     38 H           2.749896    0.604075    1.988185 H         1 <1>         0.030213 
     39 H           5.231009    0.079899    0.256642 H         1 <1>         0.023252 
     40 H           5.085161   -0.311818    1.995756 H         1 <1>         0.023252 
     41 H           5.027108    1.386536    1.458408 H         1 <1>         0.023252 
@<TRIPOS>BOND
     1    1    2 1    
     2    1    3 1    
     3    1   16 1    
     4    1   17 1    
     5    2    9 1    
     6    2   18 1    
     7    2   19 1    
     8    3    4 1    
     9    3   20 1    
    10    3   21 1    
    11    4    5 1    
    12    4   22 1    
    13    4   23 1    
    14    5    6 1    
    15    5   24 1    
    16    5   25 1    
    17    6    7 1    
    18    6   26 1    
    19    6   27 1    
    20    7    8 1    
    21    7   28 1    
    22    7   29 1    
    23    8   13 1    
    24    8   30 1    
    25    8   31 1    
    26    9   10 1    
    27    9   32 1    
    28    9   33 1    
    29   10   11 1    
    30   10   34 1    
    31   10   35 1    
    32   11   12 1    
    33   11   14 2    
    34   12   13 1    
    35   12   36 1    
    36   12   37 1    
    37   13   15 1    
    38   13   38 1    
    39   15   39 1    
    40   15   40 1    
    41   15   41 1    
@<TRIPOS>SUBSTRUCTURE
     1 ****        1 TEMP              0 ****  ****    0 ROOT 
@<TRIPOS>NORMAL
@<TRIPOS>FF_PBC
FORCE_FIELD_SETUP_FEATURE Force Field Setup information
v1.0  0 0.000000 0.000000 0.000000 0.000000 0.000000 0.000000 NONE 0 0 0 0 1 0 0 0 0 0 0 0 0
