@<TRIPOS>MOLECULE
MOL005284
   86    89     1     1     0
SMALL
GASTEIGER


@<TRIPOS>ATOM
      1 C          -0.247546   -1.589326   -0.995028 C.3       1 <1>        -0.020580 
      2 C           1.081918   -0.738515   -1.243224 C.3       1 <1>        -0.020803 
      3 C          -1.431498   -0.595429   -0.673722 C.3       1 <1>        -0.026947 
      4 C          -0.650894   -2.367743   -2.286680 C.3       1 <1>        -0.020362 
      5 C          -0.016076   -2.640619    0.162019 C.3       1 <1>        -0.058701 
      6 C           1.402752    0.012478    0.093720 C.3       1 <1>        -0.003644 
      7 C           2.398088   -1.560347   -1.503966 C.3       1 <1>        -0.046421 
      8 C           1.013095    0.266397   -2.467964 C.3       1 <1>        -0.058709 
      9 C          -2.906042   -1.193729   -0.649969 C.3       1 <1>        -0.022826 
     10 C          -1.064703    0.379111    0.507151 C.3       1 <1>        -0.022710 
     11 C          -2.053633   -3.045136   -2.271302 C.3       1 <1>         0.059651 
     12 C           2.928402    0.331544    0.036588 C.3       1 <1>        -0.006683 
     13 C           0.324054    1.087133    0.395346 C.3       1 <1>         0.059199 
     14 C           3.449319   -1.042638   -0.479475 C.3       1 <1>        -0.046740 
     15 C          -3.186378   -1.995074   -1.987079 C.3       1 <1>        -0.001805 
     16 C          -3.928701    0.008690   -0.570917 C.3       1 <1>        -0.044647 
     17 C          -3.118347   -2.084975    0.621712 C.3       1 <1>        -0.058936 
     18 O          -2.078279   -3.652539   -3.581582 O.3       1 <1>        -0.391457 
     19 C           3.687936    0.830796    1.321123 C.3       1 <1>         0.066753 
     20 O           0.586645    1.717198    1.661758 O.3       1 <1>        -0.391475 
     21 C          -4.676002   -2.507895   -2.200869 C.3       1 <1>        -0.003252 
     22 C          -5.185270   -0.103972   -1.478820 C.3       1 <1>        -0.025829 
     23 C           3.642634    2.395321    1.400913 C.3       1 <1>        -0.020552 
     24 C           3.219327    0.138407    2.637883 C.3       1 <1>        -0.035798 
     25 O           5.060218    0.445422    1.097270 O.3       1 <1>        -0.388552 
     26 C          -5.728200   -1.548897   -1.533209 C.3       1 <1>         0.060719 
     27 C          -5.029155   -2.530325   -3.732796 C.3       1 <1>        -0.057108 
     28 C          -4.925539   -3.951137   -1.657810 C.3       1 <1>        -0.057108 
     29 C           4.087401    3.022305    2.753500 C.3       1 <1>        -0.031929 
     30 O          -6.165328   -1.989893   -0.234519 O.3       1 <1>        -0.391246 
     31 C           4.146217    4.532233    2.683353 C.2       1 <1>        -0.085195 
     32 C           4.738383    5.317427    3.598817 C.2       1 <1>        -0.079616 
     33 C           4.782838    6.821663    3.432639 C.3       1 <1>        -0.044050 
     34 C           5.404407    4.790648    4.852443 C.3       1 <1>        -0.044050 
     35 H          -1.499260    0.061513   -1.544519 H         1 <1>         0.031237 
     36 H           0.115569   -3.127494   -2.507538 H         1 <1>         0.029566 
     37 H          -0.700526   -1.693701   -3.150085 H         1 <1>         0.029566 
     38 H          -0.404321   -2.303089    1.128743 H         1 <1>         0.023534 
     39 H           1.036070   -2.878818    0.349830 H         1 <1>         0.023534 
     40 H          -0.463406   -3.619869   -0.034684 H         1 <1>         0.023534 
     41 H           1.330802   -0.662660    0.953425 H         1 <1>         0.033467 
     42 H           2.815551   -1.386594   -2.509634 H         1 <1>         0.027088 
     43 H           2.288697   -2.652638   -1.452474 H         1 <1>         0.027088 
     44 H           0.199642    0.997122   -2.475403 H         1 <1>         0.023534 
     45 H           1.922505    0.871333   -2.559030 H         1 <1>         0.023534 
     46 H           0.955638   -0.268525   -3.425225 H         1 <1>         0.023534 
     47 H          -1.810036    1.178148    0.623909 H         1 <1>         0.029314 
     48 H          -1.040701   -0.149263    1.467376 H         1 <1>         0.029314 
     49 H          -2.091452   -3.857159   -1.532289 H         1 <1>         0.059637 
     50 H           3.143081    1.076466   -0.740345 H         1 <1>         0.033201 
     51 H           0.334894    1.868835   -0.379955 H         1 <1>         0.059620 
     52 H           3.504298   -1.761820    0.352058 H         1 <1>         0.026910 
     53 H           4.458885   -0.967346   -0.918347 H         1 <1>         0.026910 
     54 H          -3.040687   -1.248123   -2.782655 H         1 <1>         0.033703 
     55 H          -4.255578    0.155897    0.471829 H         1 <1>         0.027150 
     56 H          -3.492189    0.968241   -0.890486 H         1 <1>         0.027150 
     57 H          -2.769701   -1.585501    1.532570 H         1 <1>         0.023526 
     58 H          -4.170058   -2.291782    0.818376 H         1 <1>         0.023526 
     59 H          -2.628054   -3.059265    0.565175 H         1 <1>         0.023526 
     60 H          -2.625841   -4.423577   -3.674662 H         1 <1>         0.209789 
     61 H          -0.041190    2.394822    1.894285 H         1 <1>         0.209789 
     62 H          -4.949499    0.222060   -2.505304 H         1 <1>         0.029037 
     63 H          -5.969567    0.577260   -1.106253 H         1 <1>         0.029037 
     64 H           2.634579    2.765470    1.176468 H         1 <1>         0.029579 
     65 H           4.307721    2.786220    0.612986 H         1 <1>         0.029579 
     66 H           3.218190   -0.955022    2.535000 H         1 <1>         0.025730 
     67 H           3.900691    0.374477    3.467993 H         1 <1>         0.025730 
     68 H           2.213357    0.461555    2.933527 H         1 <1>         0.025730 
     69 H           5.661946    0.684826    1.792628 H         1 <1>         0.210159 
     70 H          -6.657763   -1.534119   -2.132433 H         1 <1>         0.059853 
     71 H          -6.034523   -2.948258   -3.899482 H         1 <1>         0.023588 
     72 H          -4.346837   -3.133289   -4.336945 H         1 <1>         0.023588 
     73 H          -5.019299   -1.517596   -4.161863 H         1 <1>         0.023588 
     74 H          -5.997855   -4.193926   -1.719656 H         1 <1>         0.023588 
     75 H          -4.622758   -4.064461   -0.610805 H         1 <1>         0.023588 
     76 H          -4.393148   -4.714119   -2.237478 H         1 <1>         0.023588 
     77 H           5.082282    2.638279    3.022295 H         1 <1>         0.030829 
     78 H           3.365928    2.756944    3.542057 H         1 <1>         0.030829 
     79 H          -6.808988   -1.420679    0.176550 H         1 <1>         0.209800 
     80 H           3.669696    5.003357    1.822809 H         1 <1>         0.057146 
     81 H           4.360465    7.164619    2.476024 H         1 <1>         0.027427 
     82 H           4.216094    7.298442    4.246404 H         1 <1>         0.027427 
     83 H           5.827947    7.162332    3.483633 H         1 <1>         0.027427 
     84 H           5.118422    3.761030    5.107754 H         1 <1>         0.027427 
     85 H           5.134112    5.423062    5.711447 H         1 <1>         0.027427 
     86 H           6.495929    4.829465    4.720242 H         1 <1>         0.027427 
@<TRIPOS>BOND
     1    1    2 1    
     2    1    3 1    
     3    1    4 1    
     4    1    5 1    
     5    2    6 1    
     6    2    7 1    
     7    2    8 1    
     8    3    9 1    
     9    3   10 1    
    10    3   35 1    
    11    4   11 1    
    12    4   36 1    
    13    4   37 1    
    14    5   38 1    
    15    5   39 1    
    16    5   40 1    
    17    6   12 1    
    18    6   13 1    
    19    6   41 1    
    20    7   14 1    
    21    7   42 1    
    22    7   43 1    
    23    8   44 1    
    24    8   45 1    
    25    8   46 1    
    26    9   15 1    
    27    9   16 1    
    28    9   17 1    
    29   10   13 1    
    30   10   47 1    
    31   10   48 1    
    32   11   15 1    
    33   11   18 1    
    34   11   49 1    
    35   12   14 1    
    36   12   19 1    
    37   12   50 1    
    38   13   20 1    
    39   13   51 1    
    40   14   52 1    
    41   14   53 1    
    42   15   21 1    
    43   15   54 1    
    44   16   22 1    
    45   16   55 1    
    46   16   56 1    
    47   17   57 1    
    48   17   58 1    
    49   17   59 1    
    50   18   60 1    
    51   19   23 1    
    52   19   24 1    
    53   19   25 1    
    54   20   61 1    
    55   21   26 1    
    56   21   27 1    
    57   21   28 1    
    58   22   26 1    
    59   22   62 1    
    60   22   63 1    
    61   23   29 1    
    62   23   64 1    
    63   23   65 1    
    64   24   66 1    
    65   24   67 1    
    66   24   68 1    
    67   25   69 1    
    68   26   30 1    
    69   26   70 1    
    70   27   71 1    
    71   27   72 1    
    72   27   73 1    
    73   28   74 1    
    74   28   75 1    
    75   28   76 1    
    76   29   31 1    
    77   29   77 1    
    78   29   78 1    
    79   30   79 1    
    80   31   32 2    
    81   31   80 1    
    82   32   33 1    
    83   32   34 1    
    84   33   81 1    
    85   33   82 1    
    86   33   83 1    
    87   34   84 1    
    88   34   85 1    
    89   34   86 1    
@<TRIPOS>SUBSTRUCTURE
     1 ****        1 TEMP              0 ****  ****    0 ROOT 
@<TRIPOS>NORMAL
@<TRIPOS>FF_PBC
FORCE_FIELD_SETUP_FEATURE Force Field Setup information
v1.0  0 0.000000 0.000000 0.000000 0.000000 0.000000 0.000000 NONE 0 0 0 0 1 0 0 0 0 0 0 0 0
