@<TRIPOS>MOLECULE
MOL002484
   16    15     1     1     0
SMALL
GASTEIGER


@<TRIPOS>ATOM
      1 C           1.058741    0.359579    0.378889 C.3       1 <1>         0.005109 
      2 C          -0.373294   -0.236620    0.271169 C.3       1 <1>        -0.040320 
      3 C           1.027852    1.865982    0.408093 C.2       1 <1>         0.120552 
      4 C          -1.071075    0.229535   -1.036684 C.3       1 <1>        -0.062289 
      5 C          -0.317944   -1.788304    0.327067 C.3       1 <1>        -0.062289 
      6 O           1.577572    2.515169   -0.466912 O.2       1 <1>        -0.301026 
      7 H           1.541934    0.014116    1.306516 H         1 <1>         0.034123 
      8 H           1.669870    0.016549   -0.471299 H         1 <1>         0.034123 
      9 H          -0.969146    0.117759    1.131297 H         1 <1>         0.029939 
     10 H           0.511786    2.393283    1.210291 H         1 <1>         0.102617 
     11 H          -2.083847   -0.197534   -1.103099 H         1 <1>         0.023244 
     12 H          -1.160561    1.326427   -1.064538 H         1 <1>         0.023244 
     13 H          -0.495718   -0.096708   -1.916726 H         1 <1>         0.023244 
     14 H          -1.333483   -2.211429    0.279119 H         1 <1>         0.023244 
     15 H           0.151022   -2.124068    1.265125 H         1 <1>         0.023244 
     16 H           0.266192   -2.183736   -0.518209 H         1 <1>         0.023244 
@<TRIPOS>BOND
     1    1    2 1    
     2    1    3 1    
     3    1    7 1    
     4    1    8 1    
     5    2    4 1    
     6    2    5 1    
     7    2    9 1    
     8    3    6 2    
     9    3   10 1    
    10    4   11 1    
    11    4   12 1    
    12    4   13 1    
    13    5   14 1    
    14    5   15 1    
    15    5   16 1    
@<TRIPOS>SUBSTRUCTURE
     1 ****        1 TEMP              0 ****  ****    0 ROOT 
@<TRIPOS>NORMAL
@<TRIPOS>FF_PBC
FORCE_FIELD_SETUP_FEATURE Force Field Setup information
v1.0  0 0.000000 0.000000 0.000000 0.000000 0.000000 0.000000 NONE 0 0 0 0 1 0 0 0 0 0 0 0 0
