@<TRIPOS>MOLECULE
MOL000347
   50    51     1     1     0
SMALL
GASTEIGER


@<TRIPOS>ATOM
      1 C          -0.530934    0.526487   -0.303732 C.ar      1 <1>         0.139121 
      2 C          -0.356216    1.273037    0.968649 C.ar      1 <1>         0.108881 
      3 C           0.442778    0.673220   -1.335560 C.ar      1 <1>         0.108881 
      4 O          -1.663143   -0.291087   -0.446445 O.3       1 <1>        -0.307392 
      5 C           0.783428    2.093512    1.152057 C.ar      1 <1>        -0.021834 
      6 O          -1.340621    1.145704    1.962258 O.3       1 <1>        -0.345234 
      7 C           1.629689    1.532094   -1.120260 C.ar      1 <1>        -0.021834 
      8 O           0.303168    0.018540   -2.558845 O.3       1 <1>        -0.345234 
      9 C          -1.718819   -1.462017   -1.279912 C.3       1 <1>         0.193863 
     10 C           1.810904    2.222616    0.090310 C.ar      1 <1>        -0.020213 
     11 C          -1.282075    1.854786    3.209968 C.3       1 <1>         0.043137 
     12 C          -0.138588    0.864114   -3.633027 C.3       1 <1>         0.043137 
     13 O          -3.014117   -2.062504   -1.099683 O.3       1 <1>        -0.340165 
     14 C          -0.588366   -2.502945   -1.044345 C.3       1 <1>         0.134512 
     15 C           3.015154    3.104623    0.350564 C.2       1 <1>        -0.056223 
     16 C          -3.225925   -2.637952    0.207326 C.3       1 <1>         0.113017 
     17 C          -0.718791   -3.130412    0.367179 C.3       1 <1>         0.114074 
     18 O          -0.657764   -3.501405   -2.086471 O.3       1 <1>        -0.384091 
     19 C           4.212007    2.914170   -0.223626 C.2       1 <1>        -0.058387 
     20 C          -2.151532   -3.704406    0.555559 C.3       1 <1>         0.111896 
     21 C          -3.449594   -1.593009    1.334347 C.3       1 <1>         0.073015 
     22 O          -0.360318   -2.146011    1.356983 O.3       1 <1>        -0.386401 
     23 C           5.402698    3.807123    0.020963 C.3       1 <1>         0.062691 
     24 O          -2.365375   -4.850318   -0.296762 O.3       1 <1>        -0.386488 
     25 O          -3.995849   -2.262567    2.488779 O.3       1 <1>        -0.392366 
     26 O           5.844419    4.287735   -1.260678 O.3       1 <1>        -0.390992 
     27 H           0.931421    2.645141    2.070937 H         1 <1>         0.065003 
     28 H           2.350461    1.616169   -1.923844 H         1 <1>         0.065003 
     29 H          -1.713719   -1.161133   -2.336749 H         1 <1>         0.094162 
     30 H          -2.176640    1.582580    3.789200 H         1 <1>         0.052871 
     31 H          -0.393014    1.564408    3.790387 H         1 <1>         0.052871 
     32 H          -1.292858    2.943494    3.046989 H         1 <1>         0.052871 
     33 H          -0.237591    0.244743   -4.536587 H         1 <1>         0.052871 
     34 H          -1.119221    1.307770   -3.399148 H         1 <1>         0.052871 
     35 H           0.586081    1.667838   -3.834881 H         1 <1>         0.052871 
     36 H           0.391964   -2.003895   -1.104501 H         1 <1>         0.067108 
     37 H           2.880404    3.928626    1.050723 H         1 <1>         0.062106 
     38 H          -4.187177   -3.170644    0.118833 H         1 <1>         0.064668 
     39 H           0.012249   -3.953618    0.447601 H         1 <1>         0.064758 
     40 H           0.023319   -4.163937   -2.032634 H         1 <1>         0.210111 
     41 H           4.386198    2.082907   -0.904754 H         1 <1>         0.059478 
     42 H          -2.290699   -4.024859    1.602726 H         1 <1>         0.064673 
     43 H          -2.518012   -1.090087    1.622913 H         1 <1>         0.058370 
     44 H          -4.154158   -0.829985    0.962849 H         1 <1>         0.058370 
     45 H          -0.385750   -2.474292    2.250856 H         1 <1>         0.210005 
     46 H           5.151846    4.656198    0.679102 H         1 <1>         0.060128 
     47 H           6.195050    3.210455    0.503586 H         1 <1>         0.060128 
     48 H          -1.771965   -5.575577   -0.130946 H         1 <1>         0.210004 
     49 H          -4.180723   -1.668893    3.211067 H         1 <1>         0.209508 
     50 H           6.613163    4.847893   -1.207173 H         1 <1>         0.209823 
@<TRIPOS>BOND
     1    1    2 1    
     2    1    3 2    
     3    1    4 1    
     4    2    5 2    
     5    2    6 1    
     6    3    7 1    
     7    3    8 1    
     8    4    9 1    
     9    5   10 1    
    10    5   27 1    
    11    6   11 1    
    12    7   10 2    
    13    7   28 1    
    14    8   12 1    
    15    9   13 1    
    16    9   14 1    
    17    9   29 1    
    18   10   15 1    
    19   11   30 1    
    20   11   31 1    
    21   11   32 1    
    22   12   33 1    
    23   12   34 1    
    24   12   35 1    
    25   13   16 1    
    26   14   17 1    
    27   14   18 1    
    28   14   36 1    
    29   15   19 2    
    30   15   37 1    
    31   16   20 1    
    32   16   21 1    
    33   16   38 1    
    34   17   20 1    
    35   17   22 1    
    36   17   39 1    
    37   18   40 1    
    38   19   23 1    
    39   19   41 1    
    40   20   24 1    
    41   20   42 1    
    42   21   25 1    
    43   21   43 1    
    44   21   44 1    
    45   22   45 1    
    46   23   26 1    
    47   23   46 1    
    48   23   47 1    
    49   24   48 1    
    50   25   49 1    
    51   26   50 1    
@<TRIPOS>SUBSTRUCTURE
     1 ****        1 TEMP              0 ****  ****    0 ROOT 
@<TRIPOS>NORMAL
@<TRIPOS>FF_PBC
FORCE_FIELD_SETUP_FEATURE Force Field Setup information
v1.0  0 0.000000 0.000000 0.000000 0.000000 0.000000 0.000000 NONE 0 0 0 0 1 0 0 0 0 0 0 0 0
