@<TRIPOS>MOLECULE
MOL006952
   26    26     1     1     0
SMALL
GASTEIGER


@<TRIPOS>ATOM
      1 C          -2.125789   -2.638736    0.775355 C.ar      1 <1>         0.048583 
      2 C          -2.071388   -1.919329   -0.519468 C.ar      1 <1>         0.056650 
      3 N          -1.012969   -1.100520   -0.776503 N.ar      1 <1>        -0.251072 
      4 C          -0.003409   -0.937100    0.147526 C.ar      1 <1>         0.090650 
      5 C          -0.067033   -1.629125    1.390346 C.ar      1 <1>         0.051498 
      6 N          -1.119466   -2.462857    1.676604 N.ar      1 <1>        -0.259625 
      7 C           1.173559   -0.007889   -0.176479 C.3       1 <1>         0.128869 
      8 C           0.856575    1.402661    0.387455 C.3       1 <1>         0.136809 
      9 O           0.509821    1.252186    1.780962 O.3       1 <1>        -0.383806 
     10 O           1.363196    0.016882   -1.605113 O.3       1 <1>        -0.382858 
     11 O           2.551277    2.268263   -1.148431 O.3       1 <1>        -0.365012 
     12 C           2.075257    2.353320    0.203808 C.3       1 <1>         0.182586 
     13 O           1.726426    3.734141    0.403008 O.3       1 <1>        -0.365012 
     14 C          -3.179431   -2.085984   -1.557132 C.3       1 <1>        -0.020876 
     15 H          -2.954854   -3.297872    1.006027 H         1 <1>         0.084760 
     16 H           0.717720   -1.503003    2.127665 H         1 <1>         0.084859 
     17 H           2.081400   -0.404726    0.308067 H         1 <1>         0.068712 
     18 H           0.004680    1.799271   -0.191392 H         1 <1>         0.067399 
     19 H           0.194356    2.053457    2.185800 H         1 <1>         0.210124 
     20 H           2.048069    0.626156   -1.870297 H         1 <1>         0.210412 
     21 H           3.257551    2.887498   -1.309872 H         1 <1>         0.212556 
     22 H           2.878154    2.043124    0.898384 H         1 <1>         0.093347 
     23 H           1.442421    3.930494    1.288676 H         1 <1>         0.212556 
     24 H          -3.258765   -3.145102   -1.843551 H         1 <1>         0.029297 
     25 H          -4.135628   -1.749094   -1.130237 H         1 <1>         0.029297 
     26 H          -2.951432   -1.486213   -2.451010 H         1 <1>         0.029297 
@<TRIPOS>BOND
     1    1    2 1    
     2    1    6 2    
     3    1   15 1    
     4    2    3 2    
     5    2   14 1    
     6    3    4 1    
     7    4    5 2    
     8    4    7 1    
     9    5    6 1    
    10    5   16 1    
    11    7    8 1    
    12    7   10 1    
    13    7   17 1    
    14    8    9 1    
    15    8   12 1    
    16    8   18 1    
    17    9   19 1    
    18   10   20 1    
    19   12   11 1    
    20   11   21 1    
    21   12   13 1    
    22   12   22 1    
    23   13   23 1    
    24   14   24 1    
    25   14   25 1    
    26   14   26 1    
@<TRIPOS>SUBSTRUCTURE
     1 ****        1 TEMP              0 ****  ****    0 ROOT 
@<TRIPOS>NORMAL
@<TRIPOS>FF_PBC
FORCE_FIELD_SETUP_FEATURE Force Field Setup information
v1.0  0 0.000000 0.000000 0.000000 0.000000 0.000000 0.000000 NONE 0 0 0 0 1 0 0 0 0 0 0 0 0
