@<TRIPOS>MOLECULE
MOL002275
  101   108     1     1     0
SMALL
GASTEIGER


@<TRIPOS>ATOM
      1 C          -0.664173    1.407275    1.386154 C.ar      1 <1>        -0.025759 
      2 C          -0.995371    2.816049    1.057018 C.ar      1 <1>         0.056150 
      3 C          -1.484494    3.664934    2.047093 C.ar      1 <1>         0.090545 
      4 C          -1.542454    3.180977    3.447739 C.ar      1 <1>        -0.030849 
      5 C          -1.211115    1.914229    3.746756 C.ar      1 <1>        -0.059004 
      6 C          -0.781431    0.980598    2.677969 C.ar      1 <1>        -0.057128 
      7 C          -0.204557    0.442532    0.278572 C.3       1 <1>         0.021588 
      8 C          -0.768016    0.811119   -1.105713 C.ar      1 <1>        -0.025032 
      9 C          -0.984948    2.233752   -1.453478 C.ar      1 <1>         0.055821 
     10 C          -0.802554    3.266070   -0.370463 C.2       1 <1>         0.198636 
     11 C          -1.048480   -0.149394   -2.035293 C.ar      1 <1>        -0.044250 
     12 C          -1.495416    0.223804   -3.401531 C.ar      1 <1>         0.049022 
     13 C          -1.626209    1.535309   -3.731213 C.ar      1 <1>        -0.018357 
     14 C          -1.362158    2.594853   -2.730914 C.ar      1 <1>         0.084406 
     15 C           1.349259    0.412769    0.191571 C.3       1 <1>         0.021577 
     16 C           1.726177   -0.581406   -0.918209 C.ar      1 <1>        -0.025759 
     17 C           1.922654   -2.015775   -0.595645 C.ar      1 <1>         0.056150 
     18 C           1.894516   -2.442780    0.853795 C.2       1 <1>         0.198636 
     19 C           2.096228   -1.396590    1.924460 C.ar      1 <1>         0.055799 
     20 C           1.900206    0.030704    1.574440 C.ar      1 <1>        -0.025441 
     21 C           1.850975   -0.167677   -2.211521 C.ar      1 <1>        -0.057128 
     22 C           2.099268   -1.151265   -3.292206 C.ar      1 <1>        -0.059004 
     23 C           2.215639   -2.463661   -3.008397 C.ar      1 <1>        -0.030849 
     24 C           2.137626   -2.934707   -1.600873 C.ar      1 <1>         0.090545 
     25 C           2.472032   -1.746690    3.215167 C.ar      1 <1>         0.083995 
     26 C           2.731881   -0.681159    4.208869 C.ar      1 <1>        -0.025865 
     27 C           2.619515    0.626087    3.871280 C.ar      1 <1>        -0.019442 
     28 C           2.183174    0.992207    2.500061 C.ar      1 <1>        -0.051767 
     29 O           1.744952   -3.609108    1.183345 O.2       1 <1>        -0.286459 
     30 O           2.288459   -4.284403   -1.263660 O.3       1 <1>        -0.311833 
     31 O           2.629463   -3.082038    3.602519 O.3       1 <1>        -0.359104 
     32 O          -0.531675    4.420628   -0.659751 O.2       1 <1>        -0.286459 
     33 O          -1.523504    3.933572   -3.098379 O.3       1 <1>        -0.359093 
     34 O          -1.932877    4.956405    1.753231 O.3       1 <1>        -0.311833 
     35 C          -1.787770   -0.860879   -4.416108 C.2       1 <1>         0.291326 
     36 O          -2.237764   -0.529949   -5.630424 O.3       1 <1>        -0.327489 
     37 O          -1.609607   -2.031263   -4.116346 O.2       1 <1>        -0.259428 
     38 C           2.923840    1.724173    4.895730 C.3       1 <1>         0.069320 
     39 O           1.702797    1.984668    5.608785 O.3       1 <1>        -0.390415 
     40 C          -3.107857    5.074193    0.919721 C.3       1 <1>         0.193669 
     41 C           2.345604   -5.322790   -2.250646 C.3       1 <1>         0.193669 
     42 O          -3.494946    6.455467    0.810684 O.3       1 <1>        -0.340168 
     43 C          -3.986006    7.035721    2.037895 C.3       1 <1>         0.113017 
     44 C          -5.205145    6.234491    2.577338 C.3       1 <1>         0.111896 
     45 C          -4.856554    4.729803    2.723313 C.3       1 <1>         0.114074 
     46 C          -4.309969    4.198832    1.376662 C.3       1 <1>         0.134509 
     47 O           3.548193   -5.151149   -3.025068 O.3       1 <1>        -0.340168 
     48 C           3.769944   -6.189045   -4.004340 C.3       1 <1>         0.113017 
     49 C           3.838435   -7.585522   -3.321291 C.3       1 <1>         0.111896 
     50 C           2.580311   -7.841026   -2.448037 C.3       1 <1>         0.114074 
     51 C           2.392857   -6.660220   -1.464680 C.3       1 <1>         0.134509 
     52 C          -2.867234    7.302400    3.083111 C.3       1 <1>         0.073015 
     53 O          -6.005765    3.962305    3.130659 O.3       1 <1>        -0.386401 
     54 C           2.776313   -6.099058   -5.197488 C.3       1 <1>         0.073015 
     55 O           2.683121   -9.082854   -1.726143 O.3       1 <1>        -0.386401 
     56 O           3.492204   -6.677097   -0.530274 O.3       1 <1>        -0.384091 
     57 O           3.985451   -8.621177   -4.309192 O.3       1 <1>        -0.386488 
     58 O          -5.400061    4.241840    0.428947 O.3       1 <1>        -0.384091 
     59 O          -5.659792    6.771088    3.833551 O.3       1 <1>        -0.386488 
     60 O          -3.315059    8.291975    4.031384 O.3       1 <1>        -0.392366 
     61 O           3.262483   -6.868919   -6.312512 O.3       1 <1>        -0.392366 
     62 H          -1.848396    3.861841    4.233740 H         1 <1>         0.064350 
     63 H          -1.250960    1.566821    4.775470 H         1 <1>         0.061846 
     64 H          -0.555955   -0.049258    2.942187 H         1 <1>         0.062069 
     65 H          -0.568965   -0.565392    0.540895 H         1 <1>         0.040672 
     66 H          -0.922390   -1.198086   -1.786867 H         1 <1>         0.062839 
     67 H          -1.932182    1.829042   -4.729966 H         1 <1>         0.065115 
     68 H           1.723843    1.413020   -0.078842 H         1 <1>         0.040672 
     69 H           1.745593    0.880472   -2.471114 H         1 <1>         0.062069 
     70 H           2.175445   -0.807087   -4.319595 H         1 <1>         0.061846 
     71 H           2.373113   -3.159548   -3.822333 H         1 <1>         0.064350 
     72 H           3.021328   -0.966924    5.213886 H         1 <1>         0.064686 
     73 H           2.068171    2.041132    2.248050 H         1 <1>         0.062412 
     74 H           2.327816   -3.717685    2.960174 H         1 <1>         0.217340 
     75 H          -1.093757    4.554434   -2.514975 H         1 <1>         0.217340 
     76 H          -2.389164   -1.292160   -6.179164 H         1 <1>         0.220555 
     77 H           3.274555    2.632221    4.377044 H         1 <1>         0.060711 
     78 H           3.720869    1.390327    5.580932 H         1 <1>         0.060711 
     79 H           1.795642    2.661320    6.273100 H         1 <1>         0.209847 
     80 H          -2.870379    4.778148   -0.110384 H         1 <1>         0.094160 
     81 H           1.429353   -5.272324   -2.860656 H         1 <1>         0.094160 
     82 H          -4.350475    8.036874    1.753869 H         1 <1>         0.064668 
     83 H          -6.013751    6.325431    1.830252 H         1 <1>         0.064673 
     84 H          -4.111075    4.607170    3.521129 H         1 <1>         0.064758 
     85 H          -4.000835    3.147022    1.508063 H         1 <1>         0.067108 
     86 H           4.762988   -5.981323   -4.437358 H         1 <1>         0.064668 
     87 H           4.721275   -7.581327   -2.656455 H         1 <1>         0.064673 
     88 H           1.698993   -7.941982   -3.099407 H         1 <1>         0.064758 
     89 H           1.447631   -6.796274   -0.910314 H         1 <1>         0.067108 
     90 H          -2.575393    6.386483    3.615634 H         1 <1>         0.058370 
     91 H          -1.985367    7.688651    2.543727 H         1 <1>         0.058370 
     92 H          -6.687182    3.963321    2.464288 H         1 <1>         0.210005 
     93 H           1.769585   -6.443285   -4.919714 H         1 <1>         0.058370 
     94 H           2.707695   -5.041620   -5.500809 H         1 <1>         0.058370 
     95 H           3.385868   -9.061889   -1.082747 H         1 <1>         0.210005 
     96 H           3.443930   -5.941186    0.074888 H         1 <1>         0.210111 
     97 H           4.031934   -9.489157   -3.919931 H         1 <1>         0.210004 
     98 H          -5.175503    3.911001   -0.435640 H         1 <1>         0.210111 
     99 H          -6.406812    6.293001    4.181833 H         1 <1>         0.210004 
    100 H          -2.660412    8.516693    4.685836 H         1 <1>         0.209508 
    101 H           2.695608   -6.833347   -7.077456 H         1 <1>         0.209508 
@<TRIPOS>BOND
     1    1    2 1    
     2    1    6 2    
     3    1    7 1    
     4    2    3 2    
     5    2   10 1    
     6    3    4 1    
     7    3   34 1    
     8    4    5 2    
     9    4   62 1    
    10    5    6 1    
    11    5   63 1    
    12    6   64 1    
    13    7    8 1    
    14    7   15 1    
    15    7   65 1    
    16    8    9 1    
    17    8   11 2    
    18    9   10 1    
    19    9   14 2    
    20   10   32 2    
    21   11   12 1    
    22   11   66 1    
    23   12   13 2    
    24   12   35 1    
    25   13   14 1    
    26   13   67 1    
    27   14   33 1    
    28   15   16 1    
    29   15   20 1    
    30   15   68 1    
    31   16   17 1    
    32   16   21 2    
    33   17   18 1    
    34   17   24 2    
    35   18   19 1    
    36   18   29 2    
    37   19   20 1    
    38   19   25 2    
    39   20   28 2    
    40   21   22 1    
    41   21   69 1    
    42   22   23 2    
    43   22   70 1    
    44   23   24 1    
    45   23   71 1    
    46   24   30 1    
    47   25   26 1    
    48   25   31 1    
    49   26   27 2    
    50   26   72 1    
    51   27   28 1    
    52   27   38 1    
    53   28   73 1    
    54   30   41 1    
    55   31   74 1    
    56   33   75 1    
    57   34   40 1    
    58   35   36 1    
    59   35   37 2    
    60   36   76 1    
    61   38   39 1    
    62   38   77 1    
    63   38   78 1    
    64   39   79 1    
    65   40   42 1    
    66   40   46 1    
    67   40   80 1    
    68   41   47 1    
    69   41   51 1    
    70   41   81 1    
    71   42   43 1    
    72   43   44 1    
    73   43   52 1    
    74   43   82 1    
    75   44   45 1    
    76   44   59 1    
    77   44   83 1    
    78   45   46 1    
    79   45   53 1    
    80   45   84 1    
    81   46   58 1    
    82   46   85 1    
    83   47   48 1    
    84   48   49 1    
    85   48   54 1    
    86   48   86 1    
    87   49   50 1    
    88   49   57 1    
    89   49   87 1    
    90   50   51 1    
    91   50   55 1    
    92   50   88 1    
    93   51   56 1    
    94   51   89 1    
    95   52   60 1    
    96   52   90 1    
    97   52   91 1    
    98   53   92 1    
    99   54   61 1    
   100   54   93 1    
   101   54   94 1    
   102   55   95 1    
   103   56   96 1    
   104   57   97 1    
   105   58   98 1    
   106   59   99 1    
   107   60  100 1    
   108   61  101 1    
@<TRIPOS>SUBSTRUCTURE
     1 ****        1 TEMP              0 ****  ****    0 ROOT 
@<TRIPOS>NORMAL
@<TRIPOS>FF_PBC
FORCE_FIELD_SETUP_FEATURE Force Field Setup information
v1.0  0 0.000000 0.000000 0.000000 0.000000 0.000000 0.000000 NONE 0 0 0 0 1 0 0 0 0 0 0 0 0
