@<TRIPOS>MOLECULE
MOL003534
   39    40     1     1     0
SMALL
GASTEIGER


@<TRIPOS>ATOM
      1 C          -0.293975    0.070794   -0.094260 C.3       1 <1>        -0.027242 
      2 C          -0.275971   -1.473433   -0.281461 C.3       1 <1>        -0.013350 
      3 C           1.161636    0.646839   -0.101350 C.3       1 <1>        -0.031603 
      4 C          -1.123572    0.373625    1.183815 C.3       1 <1>        -0.028345 
      5 C           0.679825   -1.941393   -1.360203 C.2       1 <1>        -0.072869 
      6 C          -1.728324   -1.955419   -0.551184 C.3       1 <1>        -0.027722 
      7 C           1.745661    0.320845   -1.507712 C.3       1 <1>        -0.031154 
      8 C           1.263309    2.180193    0.248351 C.3       1 <1>        -0.043328 
      9 C          -2.466682   -0.317769    1.195485 C.2       1 <1>        -0.076224 
     10 C           1.578554   -1.118553   -1.914582 C.2       1 <1>        -0.084465 
     11 C           0.584688   -3.392634   -1.783109 C.3       1 <1>        -0.043506 
     12 C          -2.734329   -1.362661    0.401068 C.2       1 <1>        -0.084447 
     13 C           2.432574    2.932720   -0.460636 C.3       1 <1>        -0.062396 
     14 C           1.453080    2.428470    1.778387 C.3       1 <1>        -0.062396 
     15 C          -3.490327    0.236683    2.161784 C.3       1 <1>        -0.043778 
     16 H          -0.833283    0.517500   -0.947562 H         1 <1>         0.031246 
     17 H           0.076528   -1.931377    0.658009 H         1 <1>         0.035134 
     18 H           1.760611    0.082719    0.632974 H         1 <1>         0.030916 
     19 H          -1.305966    1.456467    1.253374 H         1 <1>         0.031284 
     20 H          -0.582795    0.031457    2.079021 H         1 <1>         0.031284 
     21 H          -1.786212   -3.051201   -0.454272 H         1 <1>         0.031322 
     22 H          -2.027930   -1.678277   -1.574305 H         1 <1>         0.031322 
     23 H           2.828110    0.523395   -1.522824 H         1 <1>         0.031025 
     24 H           1.255839    0.929972   -2.283438 H         1 <1>         0.031025 
     25 H           0.336799    2.675304   -0.088471 H         1 <1>         0.029832 
     26 H           2.233394   -1.486423   -2.706416 H         1 <1>         0.057172 
     27 H           1.451541   -3.711533   -2.381418 H         1 <1>         0.027445 
     28 H           0.539474   -4.039649   -0.894142 H         1 <1>         0.027445 
     29 H          -0.318396   -3.550713   -2.390764 H         1 <1>         0.027445 
     30 H          -3.722574   -1.824308    0.424912 H         1 <1>         0.057172 
     31 H           2.463130    3.986814   -0.142624 H         1 <1>         0.023242 
     32 H           2.319065    2.942593   -1.554607 H         1 <1>         0.023242 
     33 H           3.400493    2.475570   -0.203563 H         1 <1>         0.023242 
     34 H           1.445373    3.507823    1.997094 H         1 <1>         0.023242 
     35 H           0.676777    1.973799    2.401803 H         1 <1>         0.023242 
     36 H           2.421921    2.021264    2.106683 H         1 <1>         0.023242 
     37 H          -4.415581   -0.358567    2.188202 H         1 <1>         0.027436 
     38 H          -3.752530    1.265431    1.872526 H         1 <1>         0.027436 
     39 H          -3.064462    0.251474    3.176382 H         1 <1>         0.027436 
@<TRIPOS>BOND
     1    1    2 1    
     2    1    3 1    
     3    1    4 1    
     4    1   16 1    
     5    2    5 1    
     6    2    6 1    
     7    2   17 1    
     8    3    7 1    
     9    3    8 1    
    10    3   18 1    
    11    4    9 1    
    12    4   19 1    
    13    4   20 1    
    14    5   10 2    
    15    5   11 1    
    16    6   12 1    
    17    6   21 1    
    18    6   22 1    
    19    7   10 1    
    20    7   23 1    
    21    7   24 1    
    22    8   13 1    
    23    8   14 1    
    24    8   25 1    
    25    9   12 2    
    26    9   15 1    
    27   10   26 1    
    28   11   27 1    
    29   11   28 1    
    30   11   29 1    
    31   12   30 1    
    32   13   31 1    
    33   13   32 1    
    34   13   33 1    
    35   14   34 1    
    36   14   35 1    
    37   14   36 1    
    38   15   37 1    
    39   15   38 1    
    40   15   39 1    
@<TRIPOS>SUBSTRUCTURE
     1 ****        1 TEMP              0 ****  ****    0 ROOT 
@<TRIPOS>NORMAL
@<TRIPOS>FF_PBC
FORCE_FIELD_SETUP_FEATURE Force Field Setup information
v1.0  0 0.000000 0.000000 0.000000 0.000000 0.000000 0.000000 NONE 0 0 0 0 1 0 0 0 0 0 0 0 0
