@<TRIPOS>MOLECULE
MOL004673
   71    75     1     1     0
SMALL
GASTEIGER


@<TRIPOS>ATOM
      1 O           5.447728   -1.508553   -0.112366 O.3       1 <1>        -0.342713 
      2 O          -3.965307    2.354485   -0.044669 O.3       1 <1>        -0.342717 
      3 O           3.340709   -0.996061    0.576725 O.3       1 <1>        -0.306084 
      4 O          -2.855833    3.840944    1.348358 O.3       1 <1>        -0.312387 
      5 O           2.444532   -1.520525   -1.927490 O.3       1 <1>        -0.386402 
      6 O           4.230416   -3.339135   -3.151765 O.3       1 <1>        -0.386579 
      7 O          -6.790384    2.343349    1.954714 O.3       1 <1>        -0.386402 
      8 O          -7.598338    1.740635   -0.704859 O.3       1 <1>        -0.386579 
      9 O           3.350211    1.186018   -1.644851 O.3       1 <1>        -0.384091 
     10 O          -5.403166    4.755283    2.411686 O.3       1 <1>        -0.384091 
     11 O          -0.077344   -0.240453    1.228109 O.3       1 <1>        -0.305122 
     12 O           3.341328    1.883457    0.849376 O.2       1 <1>        -0.284261 
     13 O           2.021199    4.187258    0.789744 O.3       1 <1>        -0.358954 
     14 O           0.687299   -6.687909    0.828501 O.3       1 <1>        -0.359832 
     15 C           3.740992   -1.087164   -2.387232 C.3       1 <1>         0.113985 
     16 C           4.751293   -2.263252   -2.344339 C.3       1 <1>         0.109478 
     17 C          -6.542386    3.257744    0.867477 C.3       1 <1>         0.113985 
     18 C          -6.377830    2.467910   -0.457932 C.3       1 <1>         0.109478 
     19 C           4.270578    0.083464   -1.519007 C.3       1 <1>         0.134510 
     20 C           4.985991   -2.657227   -0.860010 C.3       1 <1>         0.087319 
     21 C          -5.251322    4.063487    1.155932 C.3       1 <1>         0.134506 
     22 C          -5.128132    1.551209   -0.331409 C.3       1 <1>         0.087319 
     23 C           4.499123   -0.424404   -0.063831 C.3       1 <1>         0.193801 
     24 C          -4.061088    3.075459    1.198783 C.3       1 <1>         0.193532 
     25 C           6.080184   -3.743414   -0.697621 C.3       1 <1>        -0.036060 
     26 C          -4.809880    0.785649   -1.641234 C.3       1 <1>        -0.036060 
     27 C           2.252826   -0.239085    0.828581 C.2       1 <1>         0.157590 
     28 C          -1.609564    3.211846    1.245711 C.ar      1 <1>         0.084401 
     29 C           0.997882    1.986155    1.004988 C.ar      1 <1>         0.084563 
     30 C           2.303067    1.243017    0.886319 C.2       1 <1>         0.223405 
     31 C          -0.199580    1.145571    1.180068 C.ar      1 <1>         0.099010 
     32 C           1.088144   -0.880590    1.029197 C.2       1 <1>         0.123961 
     33 C          -1.463545    1.733087    1.298839 C.ar      1 <1>        -0.000159 
     34 C          -0.463696    4.010992    1.084336 C.ar      1 <1>        -0.000932 
     35 C           0.882373    3.396895    0.957339 C.ar      1 <1>         0.088410 
     36 C           1.023235   -2.393482    1.015764 C.ar      1 <1>         0.008305 
     37 C          -0.131412   -3.041029    0.347564 C.ar      1 <1>        -0.049598 
     38 C           2.019321   -3.208692    1.623276 C.ar      1 <1>        -0.049598 
     39 C          -0.232379   -4.444223    0.294673 C.ar      1 <1>        -0.031302 
     40 C           1.917934   -4.686097    1.559349 C.ar      1 <1>        -0.031302 
     41 C           0.811562   -5.298249    0.905983 C.ar      1 <1>         0.072619 
     42 H           1.806560   -0.813731   -1.948243 H         1 <1>         0.210005 
     43 H           4.819354   -4.080308   -3.240231 H         1 <1>         0.210002 
     44 H          -6.894283    2.799423    2.785424 H         1 <1>         0.210005 
     45 H          -7.616876    1.284006   -1.538857 H         1 <1>         0.210002 
     46 H           3.643839    1.962407   -1.173265 H         1 <1>         0.210111 
     47 H          -4.617429    5.242010    2.644970 H         1 <1>         0.210111 
     48 H           1.846452    5.121392    0.784650 H         1 <1>         0.217342 
     49 H           1.404202   -7.165862    1.229393 H         1 <1>         0.217313 
     50 H           3.650695   -0.751729   -3.435970 H         1 <1>         0.064757 
     51 H           5.708474   -1.916801   -2.772301 H         1 <1>         0.064584 
     52 H          -7.397053    3.949747    0.764271 H         1 <1>         0.064757 
     53 H          -6.208922    3.190154   -1.276086 H         1 <1>         0.064584 
     54 H           5.249313    0.398822   -1.922611 H         1 <1>         0.067108 
     55 H           4.048359   -3.064854   -0.445462 H         1 <1>         0.062075 
     56 H          -5.075623    4.787295    0.341099 H         1 <1>         0.067108 
     57 H          -5.293835    0.808922    0.468642 H         1 <1>         0.062075 
     58 H           5.003159    0.327898    0.560480 H         1 <1>         0.094162 
     59 H          -4.184834    2.406831    2.067035 H         1 <1>         0.094158 
     60 H           5.776703   -4.699514   -1.149051 H         1 <1>         0.025536 
     61 H           6.263280   -3.916085    0.374486 H         1 <1>         0.025536 
     62 H           7.020839   -3.409077   -1.160910 H         1 <1>         0.025536 
     63 H          -5.597906    0.059583   -1.889945 H         1 <1>         0.025536 
     64 H          -3.863965    0.234656   -1.519875 H         1 <1>         0.025536 
     65 H          -4.694783    1.492796   -2.476728 H         1 <1>         0.025536 
     66 H          -2.317178    1.080387    1.428686 H         1 <1>         0.066957 
     67 H          -0.578099    5.088490    1.050364 H         1 <1>         0.066933 
     68 H          -0.903415   -2.427319   -0.105326 H         1 <1>         0.062504 
     69 H           2.860068   -2.763303    2.143543 H         1 <1>         0.062504 
     70 H          -1.078706   -4.912133   -0.196373 H         1 <1>         0.064339 
     71 H           2.694501   -5.291089    2.014535 H         1 <1>         0.064339 
@<TRIPOS>BOND
     1    1   20 1    
     2   23    1 1    
     3    2   22 1    
     4   24    2 1    
     5    3   23 1    
     6   27    3 1    
     7    4   24 1    
     8   28    4 1    
     9   15    5 1    
    10    5   42 1    
    11   16    6 1    
    12    6   43 1    
    13   17    7 1    
    14    7   44 1    
    15   18    8 1    
    16    8   45 1    
    17   19    9 1    
    18    9   46 1    
    19   21   10 1    
    20   10   47 1    
    21   11   31 1    
    22   32   11 1    
    23   30   12 2    
    24   35   13 1    
    25   13   48 1    
    26   41   14 1    
    27   14   49 1    
    28   15   16 1    
    29   19   15 1    
    30   15   50 1    
    31   20   16 1    
    32   16   51 1    
    33   17   18 1    
    34   21   17 1    
    35   17   52 1    
    36   22   18 1    
    37   18   53 1    
    38   23   19 1    
    39   19   54 1    
    40   20   25 1    
    41   20   55 1    
    42   24   21 1    
    43   21   56 1    
    44   22   26 1    
    45   22   57 1    
    46   23   58 1    
    47   24   59 1    
    48   25   60 1    
    49   25   61 1    
    50   25   62 1    
    51   26   63 1    
    52   26   64 1    
    53   26   65 1    
    54   27   30 1    
    55   32   27 2    
    56   33   28 1    
    57   28   34 2    
    58   30   29 1    
    59   31   29 1    
    60   29   35 2    
    61   31   33 2    
    62   36   32 1    
    63   33   66 1    
    64   35   34 1    
    65   34   67 1    
    66   37   36 1    
    67   36   38 2    
    68   39   37 2    
    69   37   68 1    
    70   38   40 1    
    71   38   69 1    
    72   39   41 1    
    73   39   70 1    
    74   40   41 2    
    75   40   71 1    
@<TRIPOS>SUBSTRUCTURE
     1 ****        5 TEMP              0 ****  ****    0 ROOT 
@<TRIPOS>NORMAL
@<TRIPOS>FF_PBC
FORCE_FIELD_SETUP_FEATURE Force Field Setup information
v1.0  0 0.000000 0.000000 0.000000 0.000000 0.000000 0.000000 NONE 0 0 0 0 1 0 0 0 0 0 0 0 0
