@<TRIPOS>MOLECULE
MOL001501
   53    52     1     1     0
SMALL
GASTEIGER


@<TRIPOS>ATOM
      1 O          -7.320434    0.719060    0.018285 O.3       1 <1>        -0.331267 
      2 O          -5.168750    0.299026   -0.113777 O.2       1 <1>        -0.265177 
      3 C         -12.358638   -8.524291   -0.038392 C.3       1 <1>        -0.053057 
      4 C         -12.375694  -10.076439    0.006518 C.3       1 <1>        -0.053057 
      5 C         -10.906009   -7.975538   -0.003099 C.3       1 <1>        -0.053057 
      6 C         -13.827751  -10.624480   -0.034710 C.3       1 <1>        -0.053057 
      7 C         -10.888320   -6.422220   -0.026420 C.3       1 <1>        -0.053057 
      8 C         -13.850207  -12.176608    0.021275 C.3       1 <1>        -0.053057 
      9 C          -9.436387   -5.870837   -0.007084 C.3       1 <1>        -0.053057 
     10 C         -15.304430  -12.720954   -0.028932 C.3       1 <1>        -0.053057 
     11 C          -9.419771   -4.317770   -0.011067 C.3       1 <1>        -0.053045 
     12 C         -15.332585  -14.272578    0.042970 C.3       1 <1>        -0.053065 
     13 C          -7.967701   -3.766161    0.000353 C.3       1 <1>        -0.052596 
     14 C         -16.785113  -14.820871   -0.014478 C.3       1 <1>        -0.053306 
     15 C          -7.951932   -2.211900   -0.000448 C.3       1 <1>        -0.044061 
     16 C         -16.807065  -16.372332    0.059342 C.3       1 <1>        -0.055911 
     17 C          -6.501604   -1.651125    0.025580 C.3       1 <1>         0.033006 
     18 C         -18.256316  -16.922391    0.004030 C.3       1 <1>        -0.065276 
     19 C          -6.300174   -0.146934   -0.028161 C.2       1 <1>         0.259588 
     20 H         -12.854521   -8.178038   -0.960306 H         1 <1>         0.026528 
     21 H         -12.917977   -8.127226    0.824752 H         1 <1>         0.026528 
     22 H         -11.882154  -10.418324    0.930927 H         1 <1>         0.026528 
     23 H         -11.811176  -10.472144   -0.853663 H         1 <1>         0.026528 
     24 H         -10.350117   -8.360666   -0.874303 H         1 <1>         0.026528 
     25 H         -10.403096   -8.330734    0.912199 H         1 <1>         0.026528 
     26 H         -14.318315  -10.285066   -0.961849 H         1 <1>         0.026528 
     27 H         -14.391598  -10.220694    0.822159 H         1 <1>         0.026528 
     28 H         -11.435104   -6.039980    0.851386 H         1 <1>         0.026528 
     29 H         -11.401201   -6.065846   -0.934720 H         1 <1>         0.026528 
     30 H         -13.365691  -12.513474    0.952337 H         1 <1>         0.026528 
     31 H         -13.279020  -12.581449   -0.830626 H         1 <1>         0.026528 
     32 H          -8.894316   -6.244960   -0.890938 H         1 <1>         0.026528 
     33 H          -8.918751   -6.238363    0.894224 H         1 <1>         0.026528 
     34 H         -15.782643  -12.390868   -0.966010 H         1 <1>         0.026528 
     35 H         -15.879737  -12.306296    0.815562 H         1 <1>         0.026528 
     36 H          -9.943133   -3.950757   -0.908634 H         1 <1>         0.026529 
     37 H          -9.958429   -3.947442    0.876440 H         1 <1>         0.026529 
     38 H         -14.857052  -14.600710    0.981861 H         1 <1>         0.026528 
     39 H         -14.754129  -14.686649   -0.798822 H         1 <1>         0.026528 
     40 H          -7.445829   -4.136651    0.898155 H         1 <1>         0.026540 
     41 H          -7.431807   -4.138818   -0.887848 H         1 <1>         0.026540 
     42 H         -17.262234  -14.494371   -0.952802 H         1 <1>         0.026520 
     43 H         -17.364095  -14.409112    0.828398 H         1 <1>         0.026520 
     44 H          -8.497653   -1.858861    0.890307 H         1 <1>         0.027004 
     45 H          -8.467069   -1.852124   -0.906411 H         1 <1>         0.027004 
     46 H         -16.332252  -16.702247    0.999112 H         1 <1>         0.026265 
     47 H         -16.231097  -16.789544   -0.783588 H         1 <1>         0.026265 
     48 H          -6.001233   -2.006452    0.940423 H         1 <1>         0.036600 
     49 H          -5.957456   -2.064901   -0.838548 H         1 <1>         0.036600 
     50 H         -18.849618  -16.523922    0.841692 H         1 <1>         0.022978 
     51 H         -18.740650  -16.633267   -0.941833 H         1 <1>         0.022978 
     52 H         -18.247043  -18.022017    0.073864 H         1 <1>         0.022978 
     53 H          -8.189727    0.350419    0.085318 H         1 <1>         0.220208 
@<TRIPOS>BOND
     1   19    1 1    
     2    1   53 1    
     3   19    2 2    
     4    3    4 1    
     5    5    3 1    
     6    3   20 1    
     7    3   21 1    
     8    4    6 1    
     9    4   22 1    
    10    4   23 1    
    11    7    5 1    
    12    5   24 1    
    13    5   25 1    
    14    6    8 1    
    15    6   26 1    
    16    6   27 1    
    17    9    7 1    
    18    7   28 1    
    19    7   29 1    
    20    8   10 1    
    21    8   30 1    
    22    8   31 1    
    23   11    9 1    
    24    9   32 1    
    25    9   33 1    
    26   10   12 1    
    27   10   34 1    
    28   10   35 1    
    29   13   11 1    
    30   11   36 1    
    31   11   37 1    
    32   12   14 1    
    33   12   38 1    
    34   12   39 1    
    35   15   13 1    
    36   13   40 1    
    37   13   41 1    
    38   14   16 1    
    39   14   42 1    
    40   14   43 1    
    41   17   15 1    
    42   15   44 1    
    43   15   45 1    
    44   16   18 1    
    45   16   46 1    
    46   16   47 1    
    47   17   19 1    
    48   17   48 1    
    49   17   49 1    
    50   18   50 1    
    51   18   51 1    
    52   18   52 1    
@<TRIPOS>SUBSTRUCTURE
     1 ****        3 TEMP              0 ****  ****    0 ROOT 
@<TRIPOS>NORMAL
@<TRIPOS>FF_PBC
FORCE_FIELD_SETUP_FEATURE Force Field Setup information
v1.0  0 0.000000 0.000000 0.000000 0.000000 0.000000 0.000000 NONE 0 0 0 0 1 0 0 0 0 0 0 0 0
