@<TRIPOS>MOLECULE
MOL000166
   42    42     1     1     0
SMALL
GASTEIGER


@<TRIPOS>ATOM
      1 C           1.172384   -0.669671    0.371619 C.3       1 <1>        -0.008666 
      2 C           0.354934    0.153747   -0.693767 C.3       1 <1>         0.066691 
      3 C           2.626309   -0.186223    0.647289 C.3       1 <1>        -0.043649 
      4 C           1.231549   -2.201119    0.113504 C.3       1 <1>        -0.029070 
      5 C          -1.189267    0.114972   -0.414431 C.3       1 <1>        -0.020553 
      6 C           0.575835   -0.334828   -2.161978 C.3       1 <1>        -0.035799 
      7 O           0.804843    1.518754   -0.604628 O.3       1 <1>        -0.388553 
      8 C           3.584494   -0.452362   -0.539331 C.3       1 <1>        -0.031655 
      9 C           2.293926   -2.573887   -0.891905 C.2       1 <1>        -0.084672 
     10 C          -1.672905    0.871755    0.859657 C.3       1 <1>        -0.031929 
     11 C           3.347208   -1.797547   -1.191210 C.2       1 <1>        -0.076509 
     12 C          -3.182040    0.969739    0.917624 C.2       1 <1>        -0.085195 
     13 C           4.377139   -2.215475   -2.216926 C.3       1 <1>        -0.043787 
     14 C          -3.867836    1.763755    1.757461 C.2       1 <1>        -0.079616 
     15 C          -5.380674    1.820416    1.724870 C.3       1 <1>        -0.044050 
     16 C          -3.216970    2.657662    2.791923 C.3       1 <1>        -0.044050 
     17 H           0.663632   -0.530364    1.336137 H         1 <1>         0.033140 
     18 H           2.650799    0.880629    0.924863 H         1 <1>         0.027194 
     19 H           3.012372   -0.752002    1.513637 H         1 <1>         0.027194 
     20 H           0.246632   -2.578171   -0.200079 H         1 <1>         0.031097 
     21 H           1.498718   -2.729870    1.043319 H         1 <1>         0.031097 
     22 H          -1.704543    0.600260   -1.259591 H         1 <1>         0.029579 
     23 H          -1.538618   -0.927959   -0.369677 H         1 <1>         0.029579 
     24 H           1.623931   -0.285607   -2.470510 H         1 <1>         0.025730 
     25 H           0.219908   -1.365386   -2.301038 H         1 <1>         0.025730 
     26 H           0.018455    0.299375   -2.867892 H         1 <1>         0.025730 
     27 H           0.369783    2.108826   -1.210996 H         1 <1>         0.210159 
     28 H           3.480049    0.348990   -1.285886 H         1 <1>         0.030999 
     29 H           4.622097   -0.407748   -0.169197 H         1 <1>         0.030999 
     30 H           2.177217   -3.540262   -1.384216 H         1 <1>         0.057164 
     31 H          -1.360748    0.358855    1.780187 H         1 <1>         0.030829 
     32 H          -1.245029    1.885980    0.849446 H         1 <1>         0.030829 
     33 H          -3.742047    0.342877    0.222664 H         1 <1>         0.057146 
     34 H           5.361677   -2.307105   -1.734364 H         1 <1>         0.027436 
     35 H           4.138581   -3.177729   -2.694642 H         1 <1>         0.027436 
     36 H           4.438892   -1.449328   -3.004286 H         1 <1>         0.027436 
     37 H          -5.820740    1.214539    0.918395 H         1 <1>         0.027427 
     38 H          -5.703430    2.862578    1.580797 H         1 <1>         0.027427 
     39 H          -5.782283    1.456342    2.682431 H         1 <1>         0.027427 
     40 H          -2.155142    2.438994    2.968637 H         1 <1>         0.027427 
     41 H          -3.735821    2.543892    3.755649 H         1 <1>         0.027427 
     42 H          -3.307793    3.705167    2.468069 H         1 <1>         0.027427 
@<TRIPOS>BOND
     1    1    2 1    
     2    1    3 1    
     3    1    4 1    
     4    1   17 1    
     5    2    5 1    
     6    2    6 1    
     7    2    7 1    
     8    3    8 1    
     9    3   18 1    
    10    3   19 1    
    11    4    9 1    
    12    4   20 1    
    13    4   21 1    
    14    5   10 1    
    15    5   22 1    
    16    5   23 1    
    17    6   24 1    
    18    6   25 1    
    19    6   26 1    
    20    7   27 1    
    21    8   11 1    
    22    8   28 1    
    23    8   29 1    
    24    9   11 2    
    25    9   30 1    
    26   10   12 1    
    27   10   31 1    
    28   10   32 1    
    29   11   13 1    
    30   12   14 2    
    31   12   33 1    
    32   13   34 1    
    33   13   35 1    
    34   13   36 1    
    35   14   15 1    
    36   14   16 1    
    37   15   37 1    
    38   15   38 1    
    39   15   39 1    
    40   16   40 1    
    41   16   41 1    
    42   16   42 1    
@<TRIPOS>SUBSTRUCTURE
     1 ****        1 TEMP              0 ****  ****    0 ROOT 
@<TRIPOS>NORMAL
@<TRIPOS>FF_PBC
FORCE_FIELD_SETUP_FEATURE Force Field Setup information
v1.0  0 0.000000 0.000000 0.000000 0.000000 0.000000 0.000000 NONE 0 0 0 0 1 0 0 0 0 0 0 0 0
