@<TRIPOS>MOLECULE
MOL006964
   18    17     1     1     0
SMALL
GASTEIGER


@<TRIPOS>ATOM
      1 C           1.124350   -1.809099    0.000005 C.2       1 <1>         0.032050 
      2 C          -0.159128   -1.017989    0.000155 C.3       1 <1>        -0.015194 
      3 C           0.095822    0.513540   -0.000094 C.3       1 <1>        -0.048383 
      4 C          -1.237059    1.310499    0.000103 C.3       1 <1>        -0.055586 
      5 C          -0.979255    2.839870   -0.000129 C.3       1 <1>        -0.065267 
      6 N           1.013265   -3.078725   -0.000033 N.2       1 <1>        -0.148283 
      7 O           2.312987   -3.617683   -0.000180 O.3       1 <1>        -0.266212 
      8 H           2.084239   -1.286589   -0.000066 H         1 <1>         0.080486 
      9 H          -0.739455   -1.297404    0.894044 H         1 <1>         0.032292 
     10 H          -0.739814   -1.297619   -0.893418 H         1 <1>         0.032292 
     11 H           0.682161    0.782745   -0.894376 H         1 <1>         0.026860 
     12 H           0.682558    0.782969    0.893894 H         1 <1>         0.026860 
     13 H          -1.826158    1.044826    0.893822 H         1 <1>         0.026274 
     14 H          -1.826548    1.044615   -0.893259 H         1 <1>         0.026274 
     15 H          -1.936227    3.385546    0.000035 H         1 <1>         0.022978 
     16 H          -0.409124    3.133608   -0.895318 H         1 <1>         0.022978 
     17 H          -0.408706    3.133819    0.894742 H         1 <1>         0.022978 
     18 H           2.266291   -4.567226    0.000075 H         1 <1>         0.246602 
@<TRIPOS>BOND
     1    1    2 1    
     2    1    6 2    
     3    1    8 1    
     4    2    3 1    
     5    2    9 1    
     6    2   10 1    
     7    3    4 1    
     8    3   11 1    
     9    3   12 1    
    10    4    5 1    
    11    4   13 1    
    12    4   14 1    
    13    5   15 1    
    14    5   16 1    
    15    5   17 1    
    16    6    7 1    
    17    7   18 1    
@<TRIPOS>SUBSTRUCTURE
     1 ****        1 TEMP              0 ****  ****    0 ROOT 
@<TRIPOS>NORMAL
@<TRIPOS>FF_PBC
FORCE_FIELD_SETUP_FEATURE Force Field Setup information
v1.0  0 0.000000 0.000000 0.000000 0.000000 0.000000 0.000000 NONE 0 0 0 0 1 0 0 0 0 0 0 0 0
