@<TRIPOS>MOLECULE
MOL002128
   24    24     1     1     0
SMALL
GASTEIGER


@<TRIPOS>ATOM
      1 C          -1.060104    1.065217   -1.490123 C.2       1 <1>        -0.072303 
      2 C           0.047136    1.615636   -0.977051 C.2       1 <1>        -0.062503 
      3 C           0.870362    0.874018   -0.004958 C.2       1 <1>        -0.058380 
      4 C           0.391055   -0.196882    0.641584 C.2       1 <1>        -0.044701 
      5 C          -1.038778   -0.611529    0.385273 C.3       1 <1>        -0.023765 
      6 C          -1.462717   -0.330203   -1.079439 C.3       1 <1>        -0.027715 
      7 C           1.234425   -0.959114    1.592906 C.2       1 <1>        -0.054344 
      8 C           0.703965   -1.480327    2.707979 C.2       1 <1>        -0.095503 
      9 C           2.703698   -1.157133    1.298232 C.3       1 <1>        -0.040002 
     10 C          -1.943606    1.765509   -2.495747 C.3       1 <1>        -0.043484 
     11 H           0.367311    2.614699   -1.273165 H         1 <1>         0.061716 
     12 H           1.884022    1.231514    0.175527 H         1 <1>         0.062036 
     13 H          -1.678510   -0.027039    1.065898 H         1 <1>         0.031630 
     14 H          -1.184309   -1.682705    0.599747 H         1 <1>         0.031630 
     15 H          -2.551482   -0.475643   -1.171840 H         1 <1>         0.031313 
     16 H          -0.959742   -1.035858   -1.759635 H         1 <1>         0.031313 
     17 H          -0.348357   -1.354189    2.959270 H         1 <1>         0.053748 
     18 H           1.312639   -2.046927    3.412194 H         1 <1>         0.053748 
     19 H           3.054764   -2.138125    1.653537 H         1 <1>         0.027744 
     20 H           2.893006   -1.107371    0.215205 H         1 <1>         0.027744 
     21 H           3.285976   -0.369844    1.799760 H         1 <1>         0.027744 
     22 H          -2.948956    1.904612   -2.070685 H         1 <1>         0.027445 
     23 H          -1.549017    2.752647   -2.780388 H         1 <1>         0.027445 
     24 H          -2.022877    1.149140   -3.403876 H         1 <1>         0.027445 
@<TRIPOS>BOND
     1    1    2 2    
     2    1    6 1    
     3    1   10 1    
     4    2    3 1    
     5    2   11 1    
     6    3    4 2    
     7    3   12 1    
     8    4    5 1    
     9    4    7 1    
    10    5    6 1    
    11    5   13 1    
    12    5   14 1    
    13    6   15 1    
    14    6   16 1    
    15    7    8 2    
    16    7    9 1    
    17    8   17 1    
    18    8   18 1    
    19    9   19 1    
    20    9   20 1    
    21    9   21 1    
    22   10   22 1    
    23   10   23 1    
    24   10   24 1    
@<TRIPOS>SUBSTRUCTURE
     1 ****        1 TEMP              0 ****  ****    0 ROOT 
@<TRIPOS>NORMAL
@<TRIPOS>FF_PBC
FORCE_FIELD_SETUP_FEATURE Force Field Setup information
v1.0  0 0.000000 0.000000 0.000000 0.000000 0.000000 0.000000 NONE 0 0 0 0 1 0 0 0 0 0 0 0 0
