@<TRIPOS>MOLECULE
MOL002162
   17    17     1     1     0
SMALL
GASTEIGER


@<TRIPOS>ATOM
      1 C          -0.708356   -0.436285   -0.343992 C.ar      1 <1>         0.397481 
      2 C           0.005054    0.641316    0.441335 C.2       1 <1>         0.258456 
      3 C          -2.064562   -0.502990   -0.474102 C.ar      1 <1>         0.054386 
      4 O          -0.035350   -1.480298   -1.020108 O.2       1 <1>        -0.209323 
      5 C           1.510644    0.639067    0.533345 C.3       1 <1>         0.016431 
      6 O          -0.656048    1.505295    0.994361 O.2       1 <1>        -0.282780 
      7 C          -2.325369   -1.686292   -1.304008 C.ar      1 <1>         0.043586 
      8 C          -1.100483   -2.211803   -1.589296 C.ar      1 <1>         0.322203 
      9 C           2.063071    1.816953    1.377382 C.3       1 <1>        -0.057935 
     10 H          -2.798982    0.175764   -0.052970 H         1 <1>         0.071526 
     11 H           1.832432   -0.313310    0.984616 H         1 <1>         0.034539 
     12 H           1.923853    0.697943   -0.486463 H         1 <1>         0.034539 
     13 H          -3.292858   -2.061655   -1.622224 H         1 <1>         0.070735 
     14 H          -0.954153   -3.103740   -2.193556 H         1 <1>         0.175991 
     15 H           3.163244    1.774587    1.416618 H         1 <1>         0.023388 
     16 H           1.764818    2.779364    0.932512 H         1 <1>         0.023388 
     17 H           1.673247    1.766284    2.406248 H         1 <1>         0.023388 
@<TRIPOS>BOND
     1    1    2 1    
     2    1    3 2    
     3    1    4 1    
     4    2    5 1    
     5    2    6 2    
     6    3    7 1    
     7    3   10 1    
     8    4    8 1    
     9    5    9 1    
    10    5   11 1    
    11    5   12 1    
    12    7    8 2    
    13    7   13 1    
    14    8   14 1    
    15    9   15 1    
    16    9   16 1    
    17    9   17 1    
@<TRIPOS>SUBSTRUCTURE
     1 ****        1 TEMP              0 ****  ****    0 ROOT 
@<TRIPOS>NORMAL
@<TRIPOS>FF_PBC
FORCE_FIELD_SETUP_FEATURE Force Field Setup information
v1.0  0 0.000000 0.000000 0.000000 0.000000 0.000000 0.000000 NONE 0 0 0 0 1 0 0 0 0 0 0 0 0
