@<TRIPOS>MOLECULE
MOL001928
   41    44     1     1     0
SMALL
GASTEIGER


@<TRIPOS>ATOM
      1 O          -0.685613    1.188639   -2.757896 O.3       1 <1>        -0.305286 
      2 O          -0.024865   -1.637682   -1.462903 O.3       1 <1>        -0.384546 
      3 O          -4.317608    1.305582   -0.273763 O.3       1 <1>        -0.391381 
      4 O           0.547780    1.465907    1.427681 O.3       1 <1>        -0.310257 
      5 O           0.477572    2.529825   -1.393209 O.2       1 <1>        -0.264131 
      6 O           1.676867    2.494578    3.003918 O.2       1 <1>        -0.259226 
      7 C          -1.048089   -0.646173   -1.293897 C.3       1 <1>         0.112659 
      8 C          -0.602429    0.579435   -0.478553 C.3       1 <1>         0.116248 
      9 C          -2.041839    0.569219    0.104922 C.3       1 <1>         0.007456 
     10 C          -1.589633    0.094796   -2.557967 C.3       1 <1>         0.108037 
     11 C          -2.132503   -0.941629   -0.228620 C.3       1 <1>        -0.013831 
     12 C          -2.993171    1.367534   -0.828231 C.3       1 <1>         0.062008 
     13 C          -2.971992    0.750546   -2.260607 C.3       1 <1>         0.005741 
     14 C          -0.223592    1.547139   -1.563186 C.2       1 <1>         0.274459 
     15 C           0.523211    0.319982    0.554580 C.3       1 <1>         0.075164 
     16 C          -1.641432   -0.790256   -3.826251 C.3       1 <1>        -0.032386 
     17 C           1.552496    1.494380    2.317580 C.2       1 <1>         0.293839 
     18 C           2.550785    0.373760    2.513235 C.ar      1 <1>         0.046475 
     19 C           2.129979   -0.928737    3.085561 C.ar      1 <1>        -0.048875 
     20 C           3.894692    0.575704    2.154248 C.ar      1 <1>        -0.048875 
     21 C           3.065556   -1.963484    3.244156 C.ar      1 <1>        -0.061020 
     22 C           4.883841   -0.514688    2.326062 C.ar      1 <1>        -0.061020 
     23 C           4.479189   -1.752040    2.852007 C.ar      1 <1>        -0.061719 
     24 H          -0.370262   -2.426253   -1.867104 H         1 <1>         0.210326 
     25 H          -4.954575    1.802451   -0.778275 H         1 <1>         0.209790 
     26 H          -2.124911    0.839079    1.170260 H         1 <1>         0.033851 
     27 H          -1.751326   -1.581062    0.583026 H         1 <1>         0.029789 
     28 H          -3.096853   -1.335206   -0.580320 H         1 <1>         0.029789 
     29 H          -2.646639    2.417242   -0.841520 H         1 <1>         0.059710 
     30 H          -3.760281   -0.012913   -2.346076 H         1 <1>         0.031902 
     31 H          -3.198406    1.524487   -3.011739 H         1 <1>         0.031902 
     32 H           0.324523   -0.601100    1.118582 H         1 <1>         0.057758 
     33 H           1.473262    0.203411    0.006521 H         1 <1>         0.057758 
     34 H          -2.290796   -1.662724   -3.658161 H         1 <1>         0.025841 
     35 H          -2.031891   -0.209005   -4.675372 H         1 <1>         0.025841 
     36 H          -0.628971   -1.139016   -4.079003 H         1 <1>         0.025841 
     37 H           1.099067   -1.081342    3.388774 H         1 <1>         0.062527 
     38 H           4.210344    1.530358    1.745952 H         1 <1>         0.062527 
     39 H           2.757251   -2.918439    3.658135 H         1 <1>         0.061778 
     40 H           5.919339   -0.354619    2.042771 H         1 <1>         0.061778 
     41 H           5.199692   -2.554445    2.974780 H         1 <1>         0.061759 
@<TRIPOS>BOND
     1   10    1 1    
     2   14    1 1    
     3    7    2 1    
     4    2   24 1    
     5   12    3 1    
     6    3   25 1    
     7   15    4 1    
     8    4   17 1    
     9   14    5 2    
    10   17    6 2    
    11    8    7 1    
    12    7   10 1    
    13   11    7 1    
    14    9    8 1    
    15    8   14 1    
    16    8   15 1    
    17    9   11 1    
    18    9   12 1    
    19    9   26 1    
    20   10   13 1    
    21   10   16 1    
    22   11   27 1    
    23   11   28 1    
    24   12   13 1    
    25   12   29 1    
    26   13   30 1    
    27   13   31 1    
    28   15   32 1    
    29   15   33 1    
    30   16   34 1    
    31   16   35 1    
    32   16   36 1    
    33   17   18 1    
    34   18   19 1    
    35   18   20 2    
    36   19   21 2    
    37   19   37 1    
    38   20   22 1    
    39   20   38 1    
    40   21   23 1    
    41   21   39 1    
    42   22   23 2    
    43   22   40 1    
    44   23   41 1    
@<TRIPOS>SUBSTRUCTURE
     1 ****        2 TEMP              0 ****  ****    0 ROOT 
@<TRIPOS>NORMAL
@<TRIPOS>FF_PBC
FORCE_FIELD_SETUP_FEATURE Force Field Setup information
v1.0  0 0.000000 0.000000 0.000000 0.000000 0.000000 0.000000 NONE 0 0 0 0 1 0 0 0 0 0 0 0 0
