@<TRIPOS>MOLECULE
MOL000610
   41    40     1     1     0
SMALL
GASTEIGER


@<TRIPOS>ATOM
      1 C           0.338295   -0.165156    0.000094 C.3       1 <1>        -0.053057 
      2 C          -1.011124   -0.934601   -0.000129 C.3       1 <1>        -0.053057 
      3 C           0.115041    1.372088   -0.000126 C.3       1 <1>        -0.053057 
      4 C          -0.785392   -2.471525    0.000093 C.3       1 <1>        -0.053057 
      5 C           1.465725    2.139363    0.000098 C.3       1 <1>        -0.053057 
      6 C          -2.133619   -3.243161   -0.000123 C.3       1 <1>        -0.053065 
      7 C           1.244928    3.677019   -0.000130 C.3       1 <1>        -0.053065 
      8 C          -1.905324   -4.779663    0.000098 C.3       1 <1>        -0.053306 
      9 C           2.596861    4.442046    0.000090 C.3       1 <1>        -0.053306 
     10 C          -3.251915   -5.553376   -0.000119 C.3       1 <1>        -0.055911 
     11 C           2.378709    5.979695   -0.000137 C.3       1 <1>        -0.055911 
     12 C          -3.019875   -7.086891    0.000091 C.3       1 <1>        -0.065276 
     13 C           3.730582    6.739912    0.000091 C.3       1 <1>        -0.065276 
     14 H           0.918714   -0.448532    0.893542 H         1 <1>         0.026528 
     15 H           0.919121   -0.448732   -0.893026 H         1 <1>         0.026528 
     16 H          -1.591770   -0.651772   -0.893626 H         1 <1>         0.026528 
     17 H          -1.592175   -0.651574    0.893049 H         1 <1>         0.026528 
     18 H          -0.465091    1.655964   -0.893629 H         1 <1>         0.026528 
     19 H          -0.465495    1.656164    0.893038 H         1 <1>         0.026528 
     20 H          -0.204476   -2.753992    0.893546 H         1 <1>         0.026528 
     21 H          -0.204072   -2.754189   -0.893034 H         1 <1>         0.026528 
     22 H           2.045734    1.855061    0.893541 H         1 <1>         0.026528 
     23 H           2.046146    1.854857   -0.893033 H         1 <1>         0.026528 
     24 H          -2.714773   -2.961397   -0.893638 H         1 <1>         0.026528 
     25 H          -2.715172   -2.961205    0.893061 H         1 <1>         0.026528 
     26 H           0.665333    3.961964   -0.893652 H         1 <1>         0.026528 
     27 H           0.664923    3.962165    0.893052 H         1 <1>         0.026528 
     28 H          -1.324441   -5.061983    0.893614 H         1 <1>         0.026520 
     29 H          -1.324039   -5.062178   -0.893119 H         1 <1>         0.026520 
     30 H           3.176738    4.157661    0.893630 H         1 <1>         0.026520 
     31 H           3.177147    4.157461   -0.893113 H         1 <1>         0.026520 
     32 H          -3.836394   -5.277655   -0.893768 H         1 <1>         0.026265 
     33 H          -3.836787   -5.277467    0.893191 H         1 <1>         0.026265 
     34 H           1.801831    6.270951   -0.893774 H         1 <1>         0.026265 
     35 H           1.801417    6.271154    0.893184 H         1 <1>         0.026265 
     36 H          -3.985695   -7.616629   -0.000070 H         1 <1>         0.022978 
     37 H          -2.454589   -7.389948    0.895253 H         1 <1>         0.022978 
     38 H          -2.454193   -7.390137   -0.894768 H         1 <1>         0.022978 
     39 H           3.554245    7.827257   -0.000068 H         1 <1>         0.022978 
     40 H           4.317203    6.480587    0.895267 H         1 <1>         0.022978 
     41 H           4.317614    6.480387   -0.894747 H         1 <1>         0.022978 
@<TRIPOS>BOND
     1    1    2 1    
     2    1    3 1    
     3    1   14 1    
     4    1   15 1    
     5    2    4 1    
     6    2   16 1    
     7    2   17 1    
     8    3    5 1    
     9    3   18 1    
    10    3   19 1    
    11    4    6 1    
    12    4   20 1    
    13    4   21 1    
    14    5    7 1    
    15    5   22 1    
    16    5   23 1    
    17    6    8 1    
    18    6   24 1    
    19    6   25 1    
    20    7    9 1    
    21    7   26 1    
    22    7   27 1    
    23    8   10 1    
    24    8   28 1    
    25    8   29 1    
    26    9   11 1    
    27    9   30 1    
    28    9   31 1    
    29   10   12 1    
    30   10   32 1    
    31   10   33 1    
    32   11   13 1    
    33   11   34 1    
    34   11   35 1    
    35   12   36 1    
    36   12   37 1    
    37   12   38 1    
    38   13   39 1    
    39   13   40 1    
    40   13   41 1    
@<TRIPOS>SUBSTRUCTURE
     1 ****        1 TEMP              0 ****  ****    0 ROOT 
@<TRIPOS>NORMAL
@<TRIPOS>FF_PBC
FORCE_FIELD_SETUP_FEATURE Force Field Setup information
v1.0  0 0.000000 0.000000 0.000000 0.000000 0.000000 0.000000 NONE 0 0 0 0 1 0 0 0 0 0 0 0 0
