@<TRIPOS>MOLECULE
MOL002926
   35    37     1     1     0
SMALL
GASTEIGER


@<TRIPOS>ATOM
      1 C          -3.513729    1.172168    0.375199 C.ar      1 <1>         0.108702 
      2 C          -3.499503   -0.309684    0.395777 C.ar      1 <1>         0.003194 
      3 C          -2.354856   -0.998696    0.320119 C.ar      1 <1>         0.105811 
      4 C          -2.311950    1.855908    0.275231 C.ar      1 <1>         0.115713 
      5 C          -1.046210    1.074905    0.195374 C.ar      1 <1>         0.082131 
      6 C          -1.064735   -0.276185    0.212613 C.ar      1 <1>         0.119667 
      7 O           0.121475   -1.014103    0.135103 O.3       1 <1>        -0.333098 
      8 C           1.227076   -0.402779   -0.552027 C.3       1 <1>         0.097269 
      9 C           1.551369    0.953261    0.112274 C.3       1 <1>         0.041568 
     10 C           0.291859    1.769849    0.093963 C.2       1 <1>         0.171074 
     11 C           2.452496   -1.321160   -0.474005 C.ar      1 <1>        -0.017975 
     12 C           3.403082   -1.401058   -1.611297 C.ar      1 <1>        -0.056091 
     13 C           4.523766   -2.243905   -1.539117 C.ar      1 <1>        -0.061420 
     14 C           4.764260   -3.058724   -0.324711 C.ar      1 <1>        -0.061740 
     15 C           3.871050   -2.987222    0.754271 C.ar      1 <1>        -0.061420 
     16 C           2.687711   -2.097957    0.679426 C.ar      1 <1>        -0.056091 
     17 O          -2.278375    3.255099    0.250303 O.3       1 <1>        -0.356656 
     18 O          -2.384783   -2.393876    0.342516 O.3       1 <1>        -0.357194 
     19 O          -4.762712    1.809225    0.459574 O.3       1 <1>        -0.345243 
     20 C          -4.936642    3.235064    0.457441 C.3       1 <1>         0.043137 
     21 O           0.340578    2.986174    0.001972 O.2       1 <1>        -0.291781 
     22 H          -4.439871   -0.843387    0.473872 H         1 <1>         0.067077 
     23 H           0.945230   -0.256408   -1.608748 H         1 <1>         0.065572 
     24 H           2.359489    1.466012   -0.433435 H         1 <1>         0.037400 
     25 H           1.860638    0.801059    1.157773 H         1 <1>         0.037400 
     26 H           3.234500   -0.806704   -2.503321 H         1 <1>         0.062111 
     27 H           5.217052   -2.301055   -2.372316 H         1 <1>         0.061767 
     28 H           5.631472   -3.709223   -0.272515 H         1 <1>         0.061758 
     29 H           4.043418   -3.582165    1.645619 H         1 <1>         0.061767 
     30 H           2.003513   -2.049571    1.520121 H         1 <1>         0.062111 
     31 H          -1.403688    3.623227    0.164394 H         1 <1>         0.217445 
     32 H          -1.507636   -2.761501    0.291383 H         1 <1>         0.217423 
     33 H          -6.014786    3.436299    0.539133 H         1 <1>         0.052871 
     34 H          -4.435111    3.698646    1.320577 H         1 <1>         0.052871 
     35 H          -4.575548    3.678566   -0.482937 H         1 <1>         0.052871 
@<TRIPOS>BOND
     1    1    2 1    
     2    1    4 2    
     3    1   19 1    
     4    2    3 2    
     5    2   22 1    
     6    3    6 1    
     7    3   18 1    
     8    4    5 1    
     9    4   17 1    
    10    5    6 2    
    11    5   10 1    
    12    6    7 1    
    13    7    8 1    
    14    8    9 1    
    15    8   11 1    
    16    8   23 1    
    17    9   10 1    
    18    9   24 1    
    19    9   25 1    
    20   10   21 2    
    21   11   12 1    
    22   11   16 2    
    23   12   13 2    
    24   12   26 1    
    25   13   14 1    
    26   13   27 1    
    27   14   15 2    
    28   14   28 1    
    29   15   16 1    
    30   15   29 1    
    31   16   30 1    
    32   17   31 1    
    33   18   32 1    
    34   19   20 1    
    35   20   33 1    
    36   20   34 1    
    37   20   35 1    
@<TRIPOS>SUBSTRUCTURE
     1 ****        1 TEMP              0 ****  ****    0 ROOT 
@<TRIPOS>NORMAL
@<TRIPOS>FF_PBC
FORCE_FIELD_SETUP_FEATURE Force Field Setup information
v1.0  0 0.000000 0.000000 0.000000 0.000000 0.000000 0.000000 NONE 0 0 0 0 1 0 0 0 0 0 0 0 0
