@<TRIPOS>MOLECULE
MOL008043
   35    37     1     1     0
SMALL
GASTEIGER


@<TRIPOS>ATOM
      1 C           0.040614    0.812153    0.023742 C.ar      1 <1>         0.101212 
      2 C           0.543331    2.194682   -0.096245 C.ar      1 <1>         0.084635 
      3 O           0.920389   -0.268931   -0.055847 O.3       1 <1>        -0.285630 
      4 C          -1.322852    0.581872    0.220820 C.ar      1 <1>         0.002089 
      5 C          -0.336113    3.288703   -0.001081 C.ar      1 <1>         0.118465 
      6 C           2.026239    2.330403   -0.323517 C.2       1 <1>         0.195584 
      7 C           2.242458   -0.118124   -0.254254 C.2       1 <1>         0.198112 
      8 C          -2.283898    1.712395    0.312733 C.ar      1 <1>         0.107532 
      9 C          -1.789788    3.059703    0.202843 C.ar      1 <1>         0.136015 
     10 O           0.158391    4.589553   -0.100263 O.3       1 <1>        -0.356589 
     11 C           2.803925    1.089877   -0.383695 C.2       1 <1>         0.040973 
     12 O           2.575900    3.411818   -0.459291 O.2       1 <1>        -0.286945 
     13 O           3.020732   -1.201188   -0.323262 O.3       1 <1>        -0.286517 
     14 O          -3.645778    1.456892    0.502607 O.3       1 <1>        -0.357150 
     15 O          -2.616911    4.192566    0.276950 O.3       1 <1>        -0.342946 
     16 C           2.368871   -2.430545   -0.223675 C.ar      1 <1>         0.085498 
     17 C          -4.044284    4.113525    0.406700 C.3       1 <1>         0.043242 
     18 C           2.743684   -3.370923    0.856578 C.ar      1 <1>        -0.028666 
     19 C           1.360957   -2.785806   -1.146190 C.ar      1 <1>        -0.028666 
     20 C           2.095994   -4.614050    0.963725 C.ar      1 <1>        -0.029486 
     21 C           0.672333   -4.092903   -1.027706 C.ar      1 <1>        -0.029486 
     22 C           1.032711   -4.992339    0.004425 C.ar      1 <1>         0.072739 
     23 O           0.406575   -6.233781    0.142417 O.3       1 <1>        -0.359830 
     24 H          -1.669033   -0.441817    0.306711 H         1 <1>         0.067032 
     25 H          -0.533553    5.233025    0.016230 H         1 <1>         0.217446 
     26 H           3.879504    1.162910   -0.538887 H         1 <1>         0.070334 
     27 H          -3.863149    0.537712    0.606391 H         1 <1>         0.217424 
     28 H          -4.435239    5.141935    0.404512 H         1 <1>         0.052872 
     29 H          -4.329015    3.639761    1.358771 H         1 <1>         0.052872 
     30 H          -4.490573    3.572286   -0.442256 H         1 <1>         0.052872 
     31 H           3.519943   -3.093578    1.562190 H         1 <1>         0.064424 
     32 H           1.088788   -2.101907   -1.943527 H         1 <1>         0.064424 
     33 H           2.369387   -5.307513    1.751399 H         1 <1>         0.064400 
     34 H          -0.106343   -4.348384   -1.738425 H         1 <1>         0.064400 
     35 H          -0.253623   -6.417227   -0.516526 H         1 <1>         0.217313 
@<TRIPOS>BOND
     1    1    2 1    
     2    1    3 1    
     3    1    4 2    
     4    2    5 2    
     5    2    6 1    
     6    3    7 1    
     7    4    8 1    
     8    4   24 1    
     9    5    9 1    
    10    5   10 1    
    11    6   11 1    
    12    6   12 2    
    13    7   11 2    
    14    7   13 1    
    15    8    9 2    
    16    8   14 1    
    17    9   15 1    
    18   10   25 1    
    19   11   26 1    
    20   13   16 1    
    21   14   27 1    
    22   15   17 1    
    23   16   18 1    
    24   16   19 2    
    25   17   28 1    
    26   17   29 1    
    27   17   30 1    
    28   18   20 2    
    29   18   31 1    
    30   19   21 1    
    31   19   32 1    
    32   20   22 1    
    33   20   33 1    
    34   21   22 2    
    35   21   34 1    
    36   22   23 1    
    37   23   35 1    
@<TRIPOS>SUBSTRUCTURE
     1 ****        1 TEMP              0 ****  ****    0 ROOT 
@<TRIPOS>NORMAL
@<TRIPOS>FF_PBC
FORCE_FIELD_SETUP_FEATURE Force Field Setup information
v1.0  0 0.000000 0.000000 0.000000 0.000000 0.000000 0.000000 NONE 0 0 0 0 1 0 0 0 0 0 0 0 0
