@<TRIPOS>MOLECULE
MOL004651
   32    31     1     1     0
SMALL
GASTEIGER


@<TRIPOS>ATOM
      1 O          -1.304014    7.222627   -0.000028 O.2       1 <1>        -0.296330 
      2 C          -0.212616   -0.871538    0.000090 C.3       1 <1>        -0.053048 
      3 C           1.118487   -1.672388   -0.000110 C.3       1 <1>        -0.053065 
      4 C           0.048880    0.659585   -0.000112 C.3       1 <1>        -0.052779 
      5 C           0.857511   -3.203514    0.000107 C.3       1 <1>        -0.053306 
      6 C          -1.280928    1.462614    0.000074 C.3       1 <1>        -0.049606 
      7 C           2.187834   -4.005070   -0.000107 C.3       1 <1>        -0.055911 
      8 C          -1.017727    2.993028   -0.000111 C.3       1 <1>        -0.034373 
      9 C           1.924131   -5.533433    0.000122 C.3       1 <1>        -0.065276 
     10 C          -2.301225    3.789678    0.000065 C.2       1 <1>        -0.080990 
     11 C          -2.335797    5.129792    0.000074 C.2       1 <1>        -0.026368 
     12 C          -1.153009    6.011807   -0.000091 C.2       1 <1>         0.142804 
     13 H          -3.250818    3.250744    0.000190 H         1 <1>         0.057298 
     14 H          -3.306438    5.628766    0.000211 H         1 <1>         0.064624 
     15 H          -0.799717   -1.140842    0.893588 H         1 <1>         0.026529 
     16 H          -0.800089   -1.141016   -0.893110 H         1 <1>         0.026529 
     17 H           1.705727   -1.403363   -0.893575 H         1 <1>         0.026528 
     18 H           1.706109   -1.403177    0.893047 H         1 <1>         0.026528 
     19 H           0.636366    0.927922   -0.893609 H         1 <1>         0.026538 
     20 H           0.636723    0.928095    0.893096 H         1 <1>         0.026538 
     21 H           0.270799   -3.473404    0.893616 H         1 <1>         0.026520 
     22 H           0.270400   -3.473590   -0.893084 H         1 <1>         0.026520 
     23 H          -1.868854    1.196306    0.894198 H         1 <1>         0.026822 
     24 H          -1.869197    1.196146   -0.893777 H         1 <1>         0.026822 
     25 H           2.777966   -3.741562   -0.893758 H         1 <1>         0.026265 
     26 H           2.778373   -3.741365    0.893217 H         1 <1>         0.026265 
     27 H          -0.433790    3.257237   -0.896457 H         1 <1>         0.030742 
     28 H          -0.433444    3.257383    0.895967 H         1 <1>         0.030742 
     29 H           2.878697   -6.083229   -0.000038 H         1 <1>         0.022978 
     30 H           1.352697   -5.824517    0.895312 H         1 <1>         0.022978 
     31 H           1.352282   -5.824714   -0.894736 H         1 <1>         0.022978 
     32 H          -0.135119    5.625390   -0.000272 H         1 <1>         0.107505 
@<TRIPOS>BOND
     1   12    1 2    
     2    2    3 1    
     3    4    2 1    
     4    2   15 1    
     5    2   16 1    
     6    3    5 1    
     7    3   17 1    
     8    3   18 1    
     9    6    4 1    
    10    4   19 1    
    11    4   20 1    
    12    5    7 1    
    13    5   21 1    
    14    5   22 1    
    15    8    6 1    
    16    6   23 1    
    17    6   24 1    
    18    7    9 1    
    19    7   25 1    
    20    7   26 1    
    21   10    8 1    
    22    8   27 1    
    23    8   28 1    
    24    9   29 1    
    25    9   30 1    
    26    9   31 1    
    27   11   10 2    
    28   10   13 1    
    29   11   12 1    
    30   11   14 1    
    31   12   32 1    
@<TRIPOS>SUBSTRUCTURE
     1 ****        2 TEMP              0 ****  ****    0 ROOT 
@<TRIPOS>NORMAL
@<TRIPOS>FF_PBC
FORCE_FIELD_SETUP_FEATURE Force Field Setup information
v1.0  0 0.000000 0.000000 0.000000 0.000000 0.000000 0.000000 NONE 0 0 0 0 1 0 0 0 0 0 0 0 0
