@<TRIPOS>MOLECULE
MOL004806
   60    62     1     1     0
SMALL
GASTEIGER


@<TRIPOS>ATOM
      1 C          -3.482425   -3.703406    0.475695 C.ar      1 <1>         0.078530 
      2 C          -3.107604   -4.921024   -0.289799 C.ar      1 <1>        -0.030837 
      3 C          -1.972440   -4.934892   -1.105650 C.ar      1 <1>        -0.046328 
      4 C          -1.127484   -3.722738   -1.204224 C.ar      1 <1>         0.047883 
      5 C          -1.458516   -2.581956   -0.455096 C.ar      1 <1>         0.093336 
      6 C          -2.657708   -2.561281    0.415080 C.ar      1 <1>         0.016685 
      7 C           0.087384   -3.673389   -2.098089 C.2       1 <1>         0.168437 
      8 C           0.960345   -2.453421   -2.043331 C.3       1 <1>         0.041477 
      9 C           0.029856   -1.246283   -1.775431 C.3       1 <1>         0.097189 
     10 O          -0.660829   -1.438766   -0.533946 O.3       1 <1>        -0.335388 
     11 C           0.857704    0.033252   -1.652911 C.ar      1 <1>        -0.017263 
     12 O           0.355333   -4.598767   -2.848884 O.2       1 <1>        -0.291871 
     13 C           0.767830    1.106874   -2.666678 C.ar      1 <1>        -0.053617 
     14 C           1.580205    2.236094   -2.548965 C.ar      1 <1>        -0.030748 
     15 C           2.554833    2.375068   -1.439653 C.ar      1 <1>         0.083637 
     16 C           2.605982    1.366572   -0.441925 C.ar      1 <1>         0.005011 
     17 C           1.714434    0.189619   -0.560924 C.ar      1 <1>        -0.046472 
     18 O           3.400236    3.492104   -1.463274 O.3       1 <1>        -0.341438 
     19 O          -4.649119   -3.692131    1.241246 O.3       1 <1>        -0.359468 
     20 C           3.508289    1.322846    0.771459 C.2       1 <1>        -0.056309 
     21 C          -2.897450   -1.243184    1.171297 C.3       1 <1>        -0.004333 
     22 C          -3.925208   -1.233173    2.275264 C.2       1 <1>        -0.080815 
     23 C          -4.742077   -0.199389    2.540789 C.2       1 <1>        -0.079306 
     24 C          -5.834322   -0.305263    3.581513 C.3       1 <1>        -0.044040 
     25 C          -4.656005    1.140938    1.837365 C.3       1 <1>        -0.044040 
     26 C           4.430565    0.364608    0.931938 C.2       1 <1>        -0.086472 
     27 C           4.711242   -0.745120   -0.054601 C.3       1 <1>        -0.046508 
     28 C           3.841344    4.215627   -0.306906 C.3       1 <1>         0.059647 
     29 C           4.719332    5.392424   -0.801231 C.3       1 <1>        -0.038454 
     30 C           2.620882    4.734287    0.499544 C.3       1 <1>        -0.038454 
     31 H          -3.716311   -5.815850   -0.219387 H         1 <1>         0.064350 
     32 H          -1.705462   -5.825501   -1.662527 H         1 <1>         0.062610 
     33 H           1.514698   -2.313458   -2.984493 H         1 <1>         0.037398 
     34 H           1.679352   -2.588625   -1.221325 H         1 <1>         0.037398 
     35 H          -0.708896   -1.141509   -2.588045 H         1 <1>         0.065571 
     36 H           0.070493    1.023482   -3.496279 H         1 <1>         0.062190 
     37 H           1.505487    3.031343   -3.281488 H         1 <1>         0.064356 
     38 H           1.742240   -0.571851    0.211871 H         1 <1>         0.062777 
     39 H          -5.164684   -4.486257    1.167364 H         1 <1>         0.217326 
     40 H           3.390235    2.064533    1.560792 H         1 <1>         0.062104 
     41 H          -3.168601   -0.541067    0.369833 H         1 <1>         0.035721 
     42 H          -1.945176   -0.918424    1.618157 H         1 <1>         0.035721 
     43 H          -3.988753   -2.128509    2.893009 H         1 <1>         0.057473 
     44 H          -5.688837    0.444939    4.373074 H         1 <1>         0.027427 
     45 H          -5.889318   -1.298369    4.052869 H         1 <1>         0.027427 
     46 H          -6.798530   -0.112749    3.084569 H         1 <1>         0.027427 
     47 H          -4.963943    1.940710    2.527253 H         1 <1>         0.027427 
     48 H          -3.636103    1.390189    1.511888 H         1 <1>         0.027427 
     49 H          -5.328925    1.152853    0.967136 H         1 <1>         0.027427 
     50 H           5.028280    0.375944    1.845525 H         1 <1>         0.056946 
     51 H           4.223014   -0.600655   -1.029847 H         1 <1>         0.027180 
     52 H           5.795064   -0.812682   -0.230611 H         1 <1>         0.027180 
     53 H           4.365204   -1.696972    0.373469 H         1 <1>         0.027180 
     54 H           4.511694    3.587666    0.293478 H         1 <1>         0.059545 
     55 H           5.242668    5.868161    0.044311 H         1 <1>         0.025456 
     56 H           5.474015    5.021705   -1.512190 H         1 <1>         0.025456 
     57 H           4.108308    6.152319   -1.310673 H         1 <1>         0.025456 
     58 H           2.958201    5.304309    1.377157 H         1 <1>         0.025456 
     59 H           1.986105    3.905559    0.844224 H         1 <1>         0.025456 
     60 H           2.004614    5.388385   -0.136029 H         1 <1>         0.025456 
@<TRIPOS>BOND
     1    1    2 1    
     2    1    6 2    
     3    1   19 1    
     4    2    3 2    
     5    2   31 1    
     6    3    4 1    
     7    3   32 1    
     8    4    5 2    
     9    4    7 1    
    10    5    6 1    
    11    5   10 1    
    12    6   21 1    
    13    7    8 1    
    14    7   12 2    
    15    8    9 1    
    16    8   33 1    
    17    8   34 1    
    18    9   10 1    
    19    9   11 1    
    20    9   35 1    
    21   11   13 1    
    22   11   17 2    
    23   13   14 2    
    24   13   36 1    
    25   14   15 1    
    26   14   37 1    
    27   15   16 2    
    28   15   18 1    
    29   16   17 1    
    30   16   20 1    
    31   17   38 1    
    32   18   28 1    
    33   19   39 1    
    34   20   26 2    
    35   20   40 1    
    36   21   22 1    
    37   21   41 1    
    38   21   42 1    
    39   22   23 2    
    40   22   43 1    
    41   23   24 1    
    42   23   25 1    
    43   24   44 1    
    44   24   45 1    
    45   24   46 1    
    46   25   47 1    
    47   25   48 1    
    48   25   49 1    
    49   26   27 1    
    50   26   50 1    
    51   27   51 1    
    52   27   52 1    
    53   27   53 1    
    54   28   29 1    
    55   28   30 1    
    56   28   54 1    
    57   29   55 1    
    58   29   56 1    
    59   29   57 1    
    60   30   58 1    
    61   30   59 1    
    62   30   60 1    
@<TRIPOS>SUBSTRUCTURE
     1 ****        1 TEMP              0 ****  ****    0 ROOT 
@<TRIPOS>NORMAL
@<TRIPOS>FF_PBC
FORCE_FIELD_SETUP_FEATURE Force Field Setup information
v1.0  0 0.000000 0.000000 0.000000 0.000000 0.000000 0.000000 NONE 0 0 0 0 1 0 0 0 0 0 0 0 0
