@<TRIPOS>MOLECULE
MOL005554
   15    14     1     1     0
SMALL
GASTEIGER


@<TRIPOS>ATOM
      1 C          -1.104483   -0.537491   -0.331539 C.3       1 <1>         0.046520 
      2 C           0.250235    0.221596   -0.311558 C.3       1 <1>        -0.023477 
      3 C           0.348338    1.135966    0.940499 C.3       1 <1>        -0.060587 
      4 O          -2.180751    0.417370   -0.372187 O.3       1 <1>        -0.394752 
      5 C           1.440551   -0.776148   -0.348238 C.3       1 <1>        -0.060587 
      6 H          -1.150431   -1.186120   -1.223348 H         1 <1>         0.055954 
      7 H          -1.186148   -1.169844    0.568796 H         1 <1>         0.055954 
      8 H           0.297545    0.858343   -1.212851 H         1 <1>         0.031747 
      9 H           1.300500    1.689112    0.938459 H         1 <1>         0.023304 
     10 H          -0.474917    1.867136    0.949645 H         1 <1>         0.023304 
     11 H           0.293601    0.535496    1.861452 H         1 <1>         0.023304 
     12 H          -3.042535    0.011325   -0.383571 H         1 <1>         0.209407 
     13 H           2.397354   -0.231307   -0.362450 H         1 <1>         0.023304 
     14 H           1.388713   -1.405605   -1.250258 H         1 <1>         0.023304 
     15 H           1.422528   -1.429724    0.537453 H         1 <1>         0.023304 
@<TRIPOS>BOND
     1    1    2 1    
     2    1    4 1    
     3    1    6 1    
     4    1    7 1    
     5    2    3 1    
     6    2    5 1    
     7    2    8 1    
     8    3    9 1    
     9    3   10 1    
    10    3   11 1    
    11    4   12 1    
    12    5   13 1    
    13    5   14 1    
    14    5   15 1    
@<TRIPOS>SUBSTRUCTURE
     1 ****        1 TEMP              0 ****  ****    0 ROOT 
@<TRIPOS>NORMAL
@<TRIPOS>FF_PBC
FORCE_FIELD_SETUP_FEATURE Force Field Setup information
v1.0  0 0.000000 0.000000 0.000000 0.000000 0.000000 0.000000 NONE 0 0 0 0 1 0 0 0 0 0 0 0 0
