@<TRIPOS>MOLECULE
MOL006735
   13    13     1     1     0
SMALL
GASTEIGER


@<TRIPOS>ATOM
      1 O          -0.643299    1.151445   -0.858624 O.2       1 <1>        -0.215305 
      2 O           2.219883   -0.730880    0.608886 O.3       1 <1>        -0.381615 
      3 C           0.131589    0.169235   -0.236640 C.ar      1 <1>         0.357147 
      4 C           1.634984    0.014326   -0.475577 C.3       1 <1>         0.159175 
      5 C          -0.596937   -0.629586    0.606361 C.ar      1 <1>         0.048440 
      6 C          -1.972436   -0.121793    0.529348 C.ar      1 <1>         0.043165 
      7 C          -1.922480    0.924969   -0.349328 C.ar      1 <1>         0.321615 
      8 H           1.776069   -0.506457   -1.436758 H         1 <1>         0.069673 
      9 H           2.076864    1.021994   -0.543320 H         1 <1>         0.069673 
     10 H          -0.236501   -1.459795    1.204806 H         1 <1>         0.071105 
     11 H          -2.841454   -0.498801    1.058731 H         1 <1>         0.070723 
     12 H          -2.788315    1.521228   -0.625056 H         1 <1>         0.175971 
     13 H           3.161632   -0.856083    0.517672 H         1 <1>         0.210231 
@<TRIPOS>BOND
     1    3    1 1    
     2    1    7 1    
     3    4    2 1    
     4    2   13 1    
     5    3    4 1    
     6    3    5 2    
     7    4    8 1    
     8    4    9 1    
     9    5    6 1    
    10    5   10 1    
    11    6    7 2    
    12    6   11 1    
    13    7   12 1    
@<TRIPOS>SUBSTRUCTURE
     1 ****        1 TEMP              0 ****  ****    0 ROOT 
@<TRIPOS>NORMAL
@<TRIPOS>FF_PBC
FORCE_FIELD_SETUP_FEATURE Force Field Setup information
v1.0  0 0.000000 0.000000 0.000000 0.000000 0.000000 0.000000 NONE 0 0 0 0 1 0 0 0 0 0 0 0 0
