@<TRIPOS>MOLECULE
MOL013432
   76    80     1     1     0
SMALL
GASTEIGER


@<TRIPOS>ATOM
      1 C           0.656361    0.614511    0.002724 C.2       1 <1>         0.099705 
      2 C           1.888987    1.157369    0.054874 C.2       1 <1>         0.062067 
      3 C           2.030769    2.632349   -0.004133 C.2       1 <1>         0.199237 
      4 C           0.793628    3.492479   -0.029547 C.ar      1 <1>         0.082666 
      5 C          -0.477489    2.749821   -0.050559 C.ar      1 <1>         0.104560 
      6 O          -0.456881    1.360026   -0.021467 O.3       1 <1>        -0.306990 
      7 C          -1.710724    3.435737   -0.093507 C.ar      1 <1>         0.044685 
      8 C          -1.715447    4.920627   -0.150390 C.ar      1 <1>         0.083256 
      9 C          -0.491632    5.625999   -0.104312 C.ar      1 <1>        -0.000948 
     10 C           0.800505    4.901888   -0.032898 C.ar      1 <1>         0.088343 
     11 O           3.130929    3.156910   -0.048065 O.2       1 <1>        -0.286635 
     12 C           0.353119   -0.867017   -0.028576 C.ar      1 <1>         0.008541 
     13 C          -0.586930   -1.397433    0.986356 C.ar      1 <1>        -0.019754 
     14 C          -0.906643   -2.758274    1.022663 C.ar      1 <1>         0.103078 
     15 C          -0.286135   -3.694325    0.048773 C.ar      1 <1>         0.105440 
     16 C           0.595582   -3.199008   -0.928495 C.ar      1 <1>        -0.028520 
     17 C           0.901014   -1.749360   -0.989169 C.ar      1 <1>        -0.049502 
     18 O          -0.580308   -5.058402    0.125677 O.3       1 <1>        -0.345349 
     19 C          -1.210367   -5.648087   -1.024264 C.3       1 <1>         0.043135 
     20 O          -1.810911   -3.223636    1.978029 O.3       1 <1>        -0.357255 
     21 O          -2.928035    5.611148   -0.247953 O.3       1 <1>        -0.359307 
     22 O           2.006216    5.601367    0.025401 O.3       1 <1>        -0.358955 
     23 C          -3.034760    2.658787   -0.068297 C.3       1 <1>         0.117288 
     24 C          -3.177109    1.746056   -1.311886 C.3       1 <1>         0.113849 
     25 O          -3.130980    2.566664   -2.495669 O.3       1 <1>        -0.386221 
     26 C          -4.513789    0.971320   -1.217565 C.3       1 <1>         0.112059 
     27 O          -4.581208    0.045467   -2.320759 O.3       1 <1>        -0.386477 
     28 C          -4.604711    0.219778    0.135878 C.3       1 <1>         0.111744 
     29 O          -5.914729   -0.377894    0.200604 O.3       1 <1>        -0.386490 
     30 C          -4.370226    1.204666    1.312554 C.3       1 <1>         0.110816 
     31 O          -3.111453    1.894823    1.155251 O.3       1 <1>        -0.361023 
     32 C          -4.360303    0.448210    2.666221 C.3       1 <1>         0.072938 
     33 O          -5.600177   -0.277016    2.812303 O.3       1 <1>        -0.392367 
     34 C           3.165383    0.339050    0.182518 C.3       1 <1>         0.118492 
     35 C           3.156308   -0.692275    1.343800 C.3       1 <1>         0.113887 
     36 O           2.892543    0.004975    2.574670 O.3       1 <1>        -0.386221 
     37 C           4.526410   -1.414367    1.393534 C.3       1 <1>         0.112059 
     38 O           4.469504   -2.440490    2.403772 O.3       1 <1>        -0.386477 
     39 C           4.847997   -2.029122    0.006790 C.3       1 <1>         0.111744 
     40 O           6.171989   -2.590889    0.079902 O.3       1 <1>        -0.386490 
     41 C           4.761258   -0.938296   -1.094749 C.3       1 <1>         0.110817 
     42 O           3.479431   -0.275055   -1.080744 O.3       1 <1>        -0.360983 
     43 C           4.955529   -1.559225   -2.500695 C.3       1 <1>         0.072938 
     44 O           6.210536   -2.268663   -2.527203 O.3       1 <1>        -0.392367 
     45 H          -0.496518    6.707696   -0.126985 H         1 <1>         0.066933 
     46 H          -1.040166   -0.722318    1.706159 H         1 <1>         0.065075 
     47 H           1.062524   -3.872453   -1.637949 H         1 <1>         0.064430 
     48 H           1.539494   -1.377327   -1.778630 H         1 <1>         0.062505 
     49 H          -1.463615   -6.687751   -0.769959 H         1 <1>         0.052871 
     50 H          -2.137711   -5.112467   -1.280085 H         1 <1>         0.052871 
     51 H          -0.543995   -5.660841   -1.898608 H         1 <1>         0.052871 
     52 H          -1.925561   -4.165572    1.910250 H         1 <1>         0.217422 
     53 H          -2.843172    6.558871   -0.231931 H         1 <1>         0.217329 
     54 H           1.913034    6.542731   -0.076041 H         1 <1>         0.217342 
     55 H          -3.859853    3.388677   -0.087335 H         1 <1>         0.067491 
     56 H          -2.371466    0.996191   -1.345799 H         1 <1>         0.064945 
     57 H          -3.239847    2.052462   -3.290841 H         1 <1>         0.210016 
     58 H          -5.342856    1.696711   -1.285900 H         1 <1>         0.064684 
     59 H          -5.384401   -0.467814   -2.301125 H         1 <1>         0.210004 
     60 H          -3.821885   -0.558931    0.156607 H         1 <1>         0.064671 
     61 H          -6.071223   -0.810016    1.037712 H         1 <1>         0.210004 
     62 H          -5.205690    1.924252    1.346885 H         1 <1>         0.064591 
     63 H          -3.502570   -0.244649    2.692377 H         1 <1>         0.058369 
     64 H          -4.238404    1.181321    3.482099 H         1 <1>         0.058369 
     65 H          -5.666552   -0.733494    3.647377 H         1 <1>         0.209508 
     66 H           3.989756    1.025591    0.438906 H         1 <1>         0.067529 
     67 H           2.406370   -1.481052    1.191606 H         1 <1>         0.064946 
     68 H           2.914045   -0.577030    3.329382 H         1 <1>         0.210016 
     69 H           5.309284   -0.683610    1.661682 H         1 <1>         0.064684 
     70 H           5.289379   -2.924245    2.459420 H         1 <1>         0.210004 
     71 H           4.104593   -2.816963   -0.203371 H         1 <1>         0.064671 
     72 H           6.462111   -2.940185   -0.760313 H         1 <1>         0.210004 
     73 H           5.576577   -0.211587   -0.938943 H         1 <1>         0.064591 
     74 H           4.116726   -2.242872   -2.713975 H         1 <1>         0.058369 
     75 H           4.939574   -0.750543   -3.250792 H         1 <1>         0.058369 
     76 H           6.411697   -2.641962   -3.381193 H         1 <1>         0.209508 
@<TRIPOS>BOND
     1    1    2 2    
     2    1    6 1    
     3    1   12 1    
     4    2    3 1    
     5    2   34 1    
     6    3    4 1    
     7    3   11 2    
     8    4    5 1    
     9    4   10 2    
    10    5    6 1    
    11    5    7 2    
    12    7    8 1    
    13    7   23 1    
    14    8    9 2    
    15    8   21 1    
    16    9   10 1    
    17    9   45 1    
    18   10   22 1    
    19   12   13 1    
    20   12   17 2    
    21   13   14 2    
    22   13   46 1    
    23   14   15 1    
    24   14   20 1    
    25   15   16 2    
    26   15   18 1    
    27   16   17 1    
    28   16   47 1    
    29   17   48 1    
    30   18   19 1    
    31   19   49 1    
    32   19   50 1    
    33   19   51 1    
    34   20   52 1    
    35   21   53 1    
    36   22   54 1    
    37   23   24 1    
    38   23   31 1    
    39   23   55 1    
    40   24   25 1    
    41   24   26 1    
    42   24   56 1    
    43   25   57 1    
    44   26   27 1    
    45   26   28 1    
    46   26   58 1    
    47   27   59 1    
    48   28   29 1    
    49   28   30 1    
    50   28   60 1    
    51   29   61 1    
    52   30   31 1    
    53   30   32 1    
    54   30   62 1    
    55   32   33 1    
    56   32   63 1    
    57   32   64 1    
    58   33   65 1    
    59   34   35 1    
    60   34   42 1    
    61   34   66 1    
    62   35   36 1    
    63   35   37 1    
    64   35   67 1    
    65   36   68 1    
    66   37   38 1    
    67   37   39 1    
    68   37   69 1    
    69   38   70 1    
    70   39   40 1    
    71   39   41 1    
    72   39   71 1    
    73   40   72 1    
    74   41   42 1    
    75   41   43 1    
    76   41   73 1    
    77   43   44 1    
    78   43   74 1    
    79   43   75 1    
    80   44   76 1    
@<TRIPOS>SUBSTRUCTURE
     1 ****        1 TEMP              0 ****  ****    0 ROOT 
@<TRIPOS>NORMAL
@<TRIPOS>FF_PBC
FORCE_FIELD_SETUP_FEATURE Force Field Setup information
v1.0  0 0.000000 0.000000 0.000000 0.000000 0.000000 0.000000 NONE 0 0 0 0 1 0 0 0 0 0 0 0 0
