@<TRIPOS>MOLECULE
MOL000129
   32    31     1     1     0
SMALL
GASTEIGER


@<TRIPOS>ATOM
      1 C          -0.985391    1.479581   -0.000097 C.3       1 <1>        -0.028873 
      2 C           0.303145    0.612281    0.000104 C.3       1 <1>        -0.050962 
      3 C          -0.656560    2.993745    0.000059 C.3       1 <1>         0.057053 
      4 C          -0.036024   -0.903603   -0.000104 C.3       1 <1>        -0.052986 
      5 O          -1.902185    3.720292   -0.000041 O.3       1 <1>        -0.315403 
      6 C           1.252493   -1.771294    0.000113 C.3       1 <1>        -0.053064 
      7 C          -1.754401    5.053494    0.000074 C.2       1 <1>         0.259041 
      8 C           0.915368   -3.287616   -0.000107 C.3       1 <1>        -0.053306 
      9 C          -3.031270    5.847360    0.000076 C.3       1 <1>         0.021433 
     10 O          -0.668469    5.612326    0.000178 O.2       1 <1>        -0.265283 
     11 C           2.204495   -4.153883    0.000110 C.3       1 <1>        -0.055911 
     12 C           1.866711   -5.667635   -0.000115 C.3       1 <1>        -0.065276 
     13 H          -1.589468    1.249459   -0.893143 H         1 <1>         0.028748 
     14 H          -1.589805    1.249339    0.892629 H         1 <1>         0.028748 
     15 H           0.902948    0.851329    0.893634 H         1 <1>         0.026599 
     16 H           0.903348    0.851495   -0.893183 H         1 <1>         0.026599 
     17 H          -0.065605    3.239227    0.898895 H         1 <1>         0.056579 
     18 H          -0.065359    3.239372   -0.898602 H         1 <1>         0.056579 
     19 H          -0.636171   -1.142512   -0.893552 H         1 <1>         0.026529 
     20 H          -0.636563   -1.142664    0.892970 H         1 <1>         0.026529 
     21 H           1.852430   -1.532203    0.893577 H         1 <1>         0.026528 
     22 H           1.852853   -1.532034   -0.893097 H         1 <1>         0.026528 
     23 H           0.315975   -3.528193   -0.893680 H         1 <1>         0.026520 
     24 H           0.315567   -3.528350    0.893091 H         1 <1>         0.026520 
     25 H          -3.910695    5.185586   -0.000155 H         1 <1>         0.033023 
     26 H          -3.064236    6.484185    0.896240 H         1 <1>         0.033023 
     27 H          -3.064036    6.484539   -0.895852 H         1 <1>         0.033023 
     28 H           2.806881   -3.919576    0.893710 H         1 <1>         0.026265 
     29 H           2.807312   -3.919406   -0.893193 H         1 <1>         0.026265 
     30 H           2.793458   -6.263139    0.000044 H         1 <1>         0.022978 
     31 H           1.281840   -5.930718   -0.895296 H         1 <1>         0.022978 
     32 H           1.281413   -5.930882    0.894713 H         1 <1>         0.022978 
@<TRIPOS>BOND
     1    1    2 1    
     2    1    3 1    
     3    1   13 1    
     4    1   14 1    
     5    2    4 1    
     6    2   15 1    
     7    2   16 1    
     8    3    5 1    
     9    3   17 1    
    10    3   18 1    
    11    4    6 1    
    12    4   19 1    
    13    4   20 1    
    14    5    7 1    
    15    6    8 1    
    16    6   21 1    
    17    6   22 1    
    18    7    9 1    
    19    7   10 2    
    20    8   11 1    
    21    8   23 1    
    22    8   24 1    
    23    9   25 1    
    24    9   26 1    
    25    9   27 1    
    26   11   12 1    
    27   11   28 1    
    28   11   29 1    
    29   12   30 1    
    30   12   31 1    
    31   12   32 1    
@<TRIPOS>SUBSTRUCTURE
     1 ****        1 TEMP              0 ****  ****    0 ROOT 
@<TRIPOS>NORMAL
@<TRIPOS>FF_PBC
FORCE_FIELD_SETUP_FEATURE Force Field Setup information
v1.0  0 0.000000 0.000000 0.000000 0.000000 0.000000 0.000000 NONE 0 0 0 0 1 0 0 0 0 0 0 0 0
