@<TRIPOS>MOLECULE
MOL004948
   45    49     1     1     0
SMALL
GASTEIGER


@<TRIPOS>ATOM
      1 C           4.268348   -3.265366   -0.389596 C.ar      1 <1>         0.072784 
      2 C           3.482611   -2.026818   -0.199555 C.ar      1 <1>         0.367051 
      3 C           4.115299   -0.810923   -0.187046 C.ar      1 <1>         0.101010 
      4 C           5.573945   -0.653474   -0.363351 C.ar      1 <1>        -0.042114 
      5 C           6.328347   -1.831581   -0.554910 C.ar      1 <1>        -0.030761 
      6 C           5.660721   -3.165156   -0.568305 C.ar      1 <1>         0.081518 
      7 C           3.025530    0.146661    0.017851 C.ar      1 <1>         0.167192 
      8 C           1.866795   -0.565475    0.080238 C.ar      1 <1>         0.382233 
      9 C           0.572320    0.152571    0.244830 C.ar      1 <1>         0.140374 
     10 C           0.691470    1.637994    0.385451 C.ar      1 <1>         0.107591 
     11 O           1.928416    2.300176    0.338239 O.3       1 <1>        -0.272621 
     12 C           3.066230    1.640327    0.147831 C.2       1 <1>         0.308826 
     13 C          -1.929144    0.448401    0.457644 C.ar      1 <1>         0.013674 
     14 C          -1.790337    1.838143    0.606966 C.ar      1 <1>         0.084994 
     15 C          -0.441198    2.429961    0.567331 C.ar      1 <1>         0.000322 
     16 C          -3.316343   -0.203643    0.469332 C.3       1 <1>        -0.020157 
     17 C          -4.395976    0.788359    0.964689 C.3       1 <1>        -0.019621 
     18 C          -4.175038    2.196573    0.351210 C.3       1 <1>         0.070796 
     19 O          -2.894737    2.671599    0.794942 O.3       1 <1>        -0.338376 
     20 C          -0.743965   -0.429863    0.279592 C.ar      1 <1>         0.100101 
     21 O           2.119122   -1.916000   -0.027075 O.2       1 <1>        -0.202695 
     22 O           6.399075   -4.332808   -0.756325 O.3       1 <1>        -0.359526 
     23 O           4.129860    2.231364    0.084396 O.2       1 <1>        -0.258461 
     24 C          -5.245041    3.179759    0.899066 C.3       1 <1>        -0.035575 
     25 C          -4.223607    2.191556   -1.202839 C.3       1 <1>        -0.035575 
     26 O          -1.028650   -1.799823    0.160516 O.3       1 <1>        -0.346574 
     27 C          -0.309835   -2.908804   -0.391263 C.3       1 <1>         0.043070 
     28 H           3.779668   -4.233051   -0.392818 H         1 <1>         0.073776 
     29 H           6.042563    0.325829   -0.348374 H         1 <1>         0.062744 
     30 H           7.402657   -1.759632   -0.692085 H         1 <1>         0.064346 
     31 H          -0.334668    3.503603    0.677206 H         1 <1>         0.066968 
     32 H          -3.310820   -1.094376    1.118361 H         1 <1>         0.031568 
     33 H          -3.540578   -0.535947   -0.556213 H         1 <1>         0.031568 
     34 H          -4.311173    0.875600    2.060622 H         1 <1>         0.029604 
     35 H          -5.401077    0.404901    0.725111 H         1 <1>         0.029604 
     36 H           7.315038   -4.184270   -0.965464 H         1 <1>         0.217318 
     37 H          -5.204652    3.214932    1.998427 H         1 <1>         0.025736 
     38 H          -6.254171    2.863829    0.592962 H         1 <1>         0.025736 
     39 H          -5.062377    4.196268    0.518786 H         1 <1>         0.025736 
     40 H          -3.392487    1.619532   -1.638511 H         1 <1>         0.025736 
     41 H          -5.172776    1.758247   -1.552876 H         1 <1>         0.025736 
     42 H          -4.147121    3.221901   -1.581972 H         1 <1>         0.025736 
     43 H          -1.063707   -3.680651   -0.606539 H         1 <1>         0.052870 
     44 H           0.193561   -2.656828   -1.336492 H         1 <1>         0.052870 
     45 H           0.374567   -3.345242    0.349568 H         1 <1>         0.052870 
@<TRIPOS>BOND
     1    2    1 1    
     2    1    6 2    
     3    1   28 1    
     4    2    3 2    
     5   21    2 1    
     6    3    4 1    
     7    7    3 1    
     8    4    5 2    
     9    4   29 1    
    10    6    5 1    
    11    5   30 1    
    12    6   22 1    
    13    8    7 2    
    14    7   12 1    
    15    9    8 1    
    16    8   21 1    
    17    9   10 1    
    18   20    9 2    
    19   10   11 1    
    20   10   15 2    
    21   11   12 1    
    22   12   23 2    
    23   13   14 2    
    24   13   16 1    
    25   13   20 1    
    26   14   15 1    
    27   14   19 1    
    28   15   31 1    
    29   16   17 1    
    30   16   32 1    
    31   16   33 1    
    32   17   18 1    
    33   17   34 1    
    34   17   35 1    
    35   18   19 1    
    36   18   24 1    
    37   18   25 1    
    38   20   26 1    
    39   22   36 1    
    40   24   37 1    
    41   24   38 1    
    42   24   39 1    
    43   25   40 1    
    44   25   41 1    
    45   25   42 1    
    46   26   27 1    
    47   27   43 1    
    48   27   44 1    
    49   27   45 1    
@<TRIPOS>SUBSTRUCTURE
     1 ****       13 TEMP              0 ****  ****    0 ROOT 
@<TRIPOS>NORMAL
@<TRIPOS>FF_PBC
FORCE_FIELD_SETUP_FEATURE Force Field Setup information
v1.0  0 0.000000 0.000000 0.000000 0.000000 0.000000 0.000000 NONE 0 0 0 0 1 0 0 0 0 0 0 0 0
