@<TRIPOS>MOLECULE
MOL004858
   44    46     1     1     0
SMALL
GASTEIGER


@<TRIPOS>ATOM
      1 C          -1.145702   -1.773431    0.946515 C.ar      1 <1>         0.082794 
      2 C          -1.140494   -0.294741    0.931361 C.ar      1 <1>         0.101520 
      3 C          -1.832308    0.429071    1.927582 C.ar      1 <1>         0.017322 
      4 C          -2.615045   -0.326778    2.944828 C.ar      1 <1>         0.080983 
      5 C          -2.654560   -1.722619    2.922422 C.ar      1 <1>        -0.001024 
      6 C          -1.896337   -2.483238    1.900971 C.ar      1 <1>         0.088350 
      7 C          -0.293908   -2.438334   -0.104870 C.2       1 <1>         0.200581 
      8 C           0.561697   -1.576453   -0.939507 C.2       1 <1>         0.052653 
      9 C           0.425269   -0.241531   -0.896813 C.2       1 <1>         0.058267 
     10 O          -0.441445    0.375389   -0.075388 O.3       1 <1>        -0.314985 
     11 C           2.348820   -3.315705   -1.394393 C.ar      1 <1>        -0.051421 
     12 C           3.393887   -3.924890   -2.251898 C.ar      1 <1>        -0.031363 
     13 C           3.666819   -3.400258   -3.515795 C.ar      1 <1>         0.072617 
     14 C           2.886410   -2.234758   -4.001564 C.ar      1 <1>        -0.031363 
     15 C           1.891055   -1.664597   -3.193949 C.ar      1 <1>        -0.051421 
     16 C           1.609591   -2.206055   -1.839569 C.ar      1 <1>        -0.012137 
     17 O          -0.308020   -3.648191   -0.263472 O.2       1 <1>        -0.286389 
     18 O          -1.912985   -3.880399    1.887572 O.3       1 <1>        -0.358955 
     19 O          -3.326722    0.342363    3.939471 O.3       1 <1>        -0.359385 
     20 O           4.665817   -3.981894   -4.300195 O.3       1 <1>        -0.359832 
     21 C          -1.816109    1.970239    2.007536 C.3       1 <1>        -0.004235 
     22 C          -0.642572    2.679210    1.369300 C.2       1 <1>        -0.078407 
     23 C          -0.698817    3.911525    0.834804 C.2       1 <1>        -0.051184 
     24 C           0.482596    4.500015    0.093227 C.3       1 <1>         0.065055 
     25 O           1.309937    3.461044   -0.463763 O.3       1 <1>        -0.390745 
     26 C          -1.921613    4.801204    0.923042 C.3       1 <1>        -0.041633 
     27 H          -3.243884   -2.245318    3.667313 H         1 <1>         0.066932 
     28 H           1.026590    0.417567   -1.522971 H         1 <1>         0.089749 
     29 H           2.176247   -3.735621   -0.410139 H         1 <1>         0.062443 
     30 H           3.957940   -4.780741   -1.896955 H         1 <1>         0.064338 
     31 H           3.083305   -1.823251   -4.986227 H         1 <1>         0.064338 
     32 H           1.324949   -0.821560   -3.575134 H         1 <1>         0.062443 
     33 H          -2.498717   -4.271408    2.526708 H         1 <1>         0.217342 
     34 H          -3.854674    1.054455    3.597184 H         1 <1>         0.217328 
     35 H           4.824496   -3.520725   -5.115400 H         1 <1>         0.217313 
     36 H          -2.763041    2.294026    1.551939 H         1 <1>         0.035723 
     37 H          -1.805412    2.267767    3.067238 H         1 <1>         0.035723 
     38 H           0.307222    2.146225    1.349591 H         1 <1>         0.057552 
     39 H           0.103909    5.118857   -0.739754 H         1 <1>         0.060379 
     40 H           1.054508    5.140933    0.784794 H         1 <1>         0.060379 
     41 H           2.046934    3.791014   -0.967587 H         1 <1>         0.209834 
     42 H          -1.622245    5.860967    0.943704 H         1 <1>         0.027507 
     43 H          -2.562344    4.639871    0.044252 H         1 <1>         0.027507 
     44 H          -2.508306    4.623011    1.836094 H         1 <1>         0.027507 
@<TRIPOS>BOND
     1    1    2 1    
     2    1    6 2    
     3    7    1 1    
     4    2    3 2    
     5   10    2 1    
     6    3    4 1    
     7    3   21 1    
     8    5    4 2    
     9    4   19 1    
    10    6    5 1    
    11    5   27 1    
    12    6   18 1    
    13    8    7 1    
    14    7   17 2    
    15    8    9 2    
    16   16    8 1    
    17    9   10 1    
    18    9   28 1    
    19   11   12 1    
    20   11   16 2    
    21   11   29 1    
    22   12   13 2    
    23   12   30 1    
    24   13   14 1    
    25   13   20 1    
    26   14   15 2    
    27   14   31 1    
    28   15   16 1    
    29   15   32 1    
    30   18   33 1    
    31   19   34 1    
    32   20   35 1    
    33   21   22 1    
    34   21   36 1    
    35   21   37 1    
    36   22   23 2    
    37   22   38 1    
    38   23   24 1    
    39   23   26 1    
    40   24   25 1    
    41   24   39 1    
    42   24   40 1    
    43   25   41 1    
    44   26   42 1    
    45   26   43 1    
    46   26   44 1    
@<TRIPOS>SUBSTRUCTURE
     1 ****       11 TEMP              0 ****  ****    0 ROOT 
@<TRIPOS>NORMAL
@<TRIPOS>FF_PBC
FORCE_FIELD_SETUP_FEATURE Force Field Setup information
v1.0  0 0.000000 0.000000 0.000000 0.000000 0.000000 0.000000 NONE 0 0 0 0 1 0 0 0 0 0 0 0 0
