@<TRIPOS>MOLECULE
MOL008647
   42    43     1     1     0
SMALL
GASTEIGER


@<TRIPOS>ATOM
      1 O          -3.634592   -6.274741   -0.184933 O.3       1 <1>        -0.345331 
      2 O           2.996503    8.362655    0.040599 O.3       1 <1>        -0.359832 
      3 O          -1.434307    0.789791    0.071438 O.2       1 <1>        -0.270843 
      4 O          -1.495922   -7.524301   -0.160852 O.3       1 <1>        -0.357268 
      5 N           0.781878    0.882568   -0.285512 N.am      1 <1>        -0.311510 
      6 C           2.256857    2.880688   -0.059659 C.3       1 <1>        -0.012046 
      7 C           0.803279    2.343538   -0.178407 C.3       1 <1>         0.015857 
      8 C           2.436706    4.420645   -0.043630 C.ar      1 <1>        -0.045729 
      9 C           3.427507    4.852115   -0.129060 C.ar      1 <1>        -0.056093 
     10 C           1.268200    5.350806    0.090580 C.ar      1 <1>        -0.056093 
     11 C           3.627561    6.329138   -0.111178 C.ar      1 <1>        -0.031682 
     12 C           1.421997    6.411973    0.108575 C.ar      1 <1>        -0.031682 
     13 C          -0.384373    0.207133   -0.150024 C.2       1 <1>         0.236920 
     14 C          -1.460283   -3.547462    0.063236 C.ar      1 <1>        -0.022275 
     15 C           2.799022    6.978068   -0.000867 C.ar      1 <1>         0.072598 
     16 C          -1.431242   -2.028709    0.141212 C.2       1 <1>        -0.049607 
     17 C          -0.402329   -1.268732   -0.261461 C.2       1 <1>         0.000688 
     18 C          -2.391015   -4.084377   -0.022579 C.ar      1 <1>        -0.022000 
     19 C          -2.417572   -5.578911   -0.096068 C.ar      1 <1>         0.105959 
     20 C          -0.183318   -4.327070    0.113571 C.ar      1 <1>        -0.051998 
     21 C          -1.493874   -6.123567   -0.079162 C.ar      1 <1>         0.102471 
     22 C          -0.198473   -5.390628    0.043224 C.ar      1 <1>        -0.028841 
     23 C          -4.859999   -5.701840    0.296799 C.3       1 <1>         0.043136 
     24 H           2.817608    2.471969   -0.918500 H         1 <1>         0.032830 
     25 H           2.693261    2.467964    0.864967 H         1 <1>         0.032830 
     26 H           0.233174    2.646699    0.716837 H         1 <1>         0.046516 
     27 H           0.322323    2.769272   -1.074634 H         1 <1>         0.046516 
     28 H           1.636358    0.393346   -0.471368 H         1 <1>         0.148996 
     29 H           4.319258    4.235059   -0.226903 H         1 <1>         0.062108 
     30 H           0.262658    4.941405    0.168500 H         1 <1>         0.062108 
     31 H           4.639584    6.718233   -0.206681 H         1 <1>         0.064328 
     32 H           0.591541    7.113812    0.201160 H         1 <1>         0.064328 
     33 H          -2.303206   -1.513417    0.552063 H         1 <1>         0.062502 
     34 H           0.481976   -1.723252   -0.698676 H         1 <1>         0.066944 
     35 H          -3.335256   -3.550873   -0.067507 H         1 <1>         0.065001 
     36 H           0.759065   -3.795082    0.230591 H         1 <1>         0.062425 
     37 H           0.719834   -5.979440    0.066998 H         1 <1>         0.064421 
     38 H           2.401662    8.793514    0.646362 H         1 <1>         0.217313 
     39 H          -0.633809   -7.920723   -0.115841 H         1 <1>         0.217422 
     40 H          -4.745725   -5.338037    1.331273 H         1 <1>         0.052871 
     41 H          -5.206485   -4.889072   -0.359346 H         1 <1>         0.052871 
     42 H          -5.621028   -6.497638    0.283640 H         1 <1>         0.052871 
@<TRIPOS>BOND
     1   19    1 1    
     2    1   23 1    
     3   15    2 1    
     4    2   38 1    
     5   13    3 2    
     6   21    4 1    
     7    4   39 1    
     8    5    7 1    
     9   13    5 1    
    10    5   28 1    
    11    7    6 1    
    12    6    8 1    
    13    6   24 1    
    14    6   25 1    
    15    7   26 1    
    16    7   27 1    
    17    8    9 2    
    18    8   10 1    
    19    9   11 1    
    20    9   29 1    
    21   10   12 2    
    22   10   30 1    
    23   11   15 2    
    24   11   31 1    
    25   12   15 1    
    26   12   32 1    
    27   17   13 1    
    28   14   16 1    
    29   18   14 2    
    30   14   20 1    
    31   16   17 2    
    32   16   33 1    
    33   17   34 1    
    34   19   18 1    
    35   18   35 1    
    36   19   21 2    
    37   20   22 2    
    38   20   36 1    
    39   21   22 1    
    40   22   37 1    
    41   23   40 1    
    42   23   41 1    
    43   23   42 1    
@<TRIPOS>SUBSTRUCTURE
     1 ****       14 TEMP              0 ****  ****    0 ROOT 
@<TRIPOS>NORMAL
@<TRIPOS>FF_PBC
FORCE_FIELD_SETUP_FEATURE Force Field Setup information
v1.0  0 0.000000 0.000000 0.000000 0.000000 0.000000 0.000000 NONE 0 0 0 0 1 0 0 0 0 0 0 0 0
