@<TRIPOS>MOLECULE
MOL004867
   45    47     1     1     0
SMALL
GASTEIGER


@<TRIPOS>ATOM
      1 C          -0.197676    2.006871    0.048289 C.ar      1 <1>         0.091864 
      2 C           0.758777    0.873206    0.048657 C.ar      1 <1>         0.084831 
      3 C           0.317941   -0.445132   -0.050864 C.ar      1 <1>         0.099019 
      4 C          -1.128253   -0.724569   -0.183452 C.ar      1 <1>        -0.000251 
      5 C          -2.058959    0.332064   -0.158806 C.ar      1 <1>         0.080983 
      6 C          -1.579253    1.736673   -0.004734 C.ar      1 <1>         0.016577 
      7 C           2.245158    1.078772    0.178290 C.2       1 <1>         0.223075 
      8 C           3.112314   -0.102497    0.107929 C.2       1 <1>         0.151807 
      9 C           2.561012   -1.332203    0.045519 C.2       1 <1>         0.123702 
     10 O           1.227850   -1.505643   -0.020988 O.3       1 <1>        -0.305130 
     11 C           3.059639   -3.601908   -0.893617 C.ar      1 <1>        -0.019688 
     12 C           3.836582   -4.868907   -0.929718 C.ar      1 <1>         0.102828 
     13 C           4.903292   -5.062370   -0.032009 C.ar      1 <1>         0.102222 
     14 C           3.376536   -2.608489    0.041442 C.ar      1 <1>         0.010729 
     15 C          -2.533467    2.934136    0.094697 C.3       1 <1>        -0.004339 
     16 C          -3.923015    2.664789    0.611090 C.2       1 <1>        -0.080815 
     17 C          -4.962599    3.476783    0.362767 C.2       1 <1>        -0.079306 
     18 C          -6.354493    3.143980    0.843597 C.3       1 <1>        -0.044040 
     19 C          -4.815035    4.771543   -0.396750 C.3       1 <1>        -0.044040 
     20 O          -3.423910    0.063423   -0.293060 O.3       1 <1>        -0.359385 
     21 O           0.259072    3.331041    0.113600 O.3       1 <1>        -0.358672 
     22 O           2.709251    2.197572    0.327354 O.2       1 <1>        -0.284270 
     23 O           3.524770   -5.875168   -1.846447 O.3       1 <1>        -0.357261 
     24 O           5.661856   -6.235432   -0.059887 O.3       1 <1>        -0.357274 
     25 C           4.484971   -2.835758    1.004111 C.ar      1 <1>        -0.049435 
     26 C           5.226588   -4.018359    0.961166 C.ar      1 <1>        -0.028769 
     27 O           4.441115    0.090931    0.081144 O.3       1 <1>        -0.354461 
     28 H          -1.450614   -1.756474   -0.303995 H         1 <1>         0.066956 
     29 H           2.248150   -3.437330   -1.596590 H         1 <1>         0.065076 
     30 H          -2.107246    3.669379    0.794814 H         1 <1>         0.035721 
     31 H          -2.558643    3.364797   -0.915773 H         1 <1>         0.035721 
     32 H          -4.092491    1.783213    1.226311 H         1 <1>         0.057473 
     33 H          -6.406731    2.144793    1.297251 H         1 <1>         0.027427 
     34 H          -7.073420    3.179792    0.011040 H         1 <1>         0.027427 
     35 H          -6.650221    3.879050    1.603664 H         1 <1>         0.027427 
     36 H          -3.827433    5.235479   -0.260884 H         1 <1>         0.027427 
     37 H          -5.555807    5.490838   -0.023978 H         1 <1>         0.027427 
     38 H          -4.987410    4.589604   -1.467271 H         1 <1>         0.027427 
     39 H          -3.625396   -0.814909   -0.596768 H         1 <1>         0.217328 
     40 H           1.163188    3.454366   -0.154834 H         1 <1>         0.217354 
     41 H           2.696243   -5.728252   -2.288049 H         1 <1>         0.217422 
     42 H           5.344145   -6.847312   -0.714701 H         1 <1>         0.217422 
     43 H           4.732697   -2.091570    1.754185 H         1 <1>         0.062506 
     44 H           6.040439   -4.178025    1.660238 H         1 <1>         0.064422 
     45 H           4.980359   -0.634278   -0.203656 H         1 <1>         0.217537 
@<TRIPOS>BOND
     1    2    1 1    
     2    1    6 2    
     3    1   21 1    
     4    3    2 2    
     5    7    2 1    
     6    3    4 1    
     7   10    3 1    
     8    4    5 2    
     9    4   28 1    
    10    5    6 1    
    11    5   20 1    
    12    6   15 1    
    13    8    7 1    
    14    7   22 2    
    15    9    8 2    
    16    8   27 1    
    17    9   10 1    
    18   14    9 1    
    19   11   12 1    
    20   11   14 2    
    21   11   29 1    
    22   12   13 2    
    23   12   23 1    
    24   13   24 1    
    25   13   26 1    
    26   14   25 1    
    27   15   16 1    
    28   15   30 1    
    29   15   31 1    
    30   16   17 2    
    31   16   32 1    
    32   17   18 1    
    33   17   19 1    
    34   18   33 1    
    35   18   34 1    
    36   18   35 1    
    37   19   36 1    
    38   19   37 1    
    39   19   38 1    
    40   20   39 1    
    41   21   40 1    
    42   23   41 1    
    43   24   42 1    
    44   25   26 2    
    45   25   43 1    
    46   26   44 1    
    47   27   45 1    
@<TRIPOS>SUBSTRUCTURE
     1 ****       11 TEMP              0 ****  ****    0 ROOT 
@<TRIPOS>NORMAL
@<TRIPOS>FF_PBC
FORCE_FIELD_SETUP_FEATURE Force Field Setup information
v1.0  0 0.000000 0.000000 0.000000 0.000000 0.000000 0.000000 NONE 0 0 0 0 1 0 0 0 0 0 0 0 0
