@<TRIPOS>MOLECULE
MOL001862
   33    34     1     1     0
SMALL
GASTEIGER


@<TRIPOS>ATOM
      1 C           0.958504    1.296479   -1.878107 C.ar      1 <1>        -0.042727 
      2 C           2.115854    1.337829   -0.956130 C.ar      1 <1>        -0.057979 
      3 C           2.074808    0.728562    0.283283 C.ar      1 <1>        -0.057482 
      4 C           0.871132    0.000782    0.757537 C.ar      1 <1>        -0.037067 
      5 C          -0.294952   -0.061734   -0.127857 C.ar      1 <1>        -0.013961 
      6 C          -1.557328   -0.763978    0.241546 C.ar      1 <1>        -0.050833 
      7 C          -2.663741   -0.813445   -0.618954 C.ar      1 <1>        -0.049846 
      8 C          -2.598614   -0.154536   -1.940883 C.ar      1 <1>        -0.058237 
      9 C          -1.444336    0.517843   -2.342077 C.ar      1 <1>        -0.053522 
     10 C          -0.243216    0.599302   -1.466140 C.ar      1 <1>        -0.014689 
     11 C           0.969023   -0.632099    2.167512 C.3       1 <1>        -0.020939 
     12 C           2.087003   -1.710041    2.214944 C.3       1 <1>        -0.058632 
     13 C           1.183551    0.459964    3.251699 C.3       1 <1>        -0.058632 
     14 C          -3.934239   -1.551762   -0.181117 C.3       1 <1>        -0.039690 
     15 C           1.183647    2.028064   -3.213080 C.3       1 <1>        -0.039133 
     16 H           3.019575    1.858673   -1.258689 H         1 <1>         0.062047 
     17 H           2.957351    0.797472    0.908131 H         1 <1>         0.062064 
     18 H          -1.677948   -1.266522    1.187914 H         1 <1>         0.062633 
     19 H          -3.455623   -0.193489   -2.606016 H         1 <1>         0.062038 
     20 H          -1.468699    0.975099   -3.319963 H         1 <1>         0.062378 
     21 H           0.052458   -1.154568    2.462418 H         1 <1>         0.034363 
     22 H           1.907887   -2.464149    1.432463 H         1 <1>         0.023545 
     23 H           2.090112   -2.217397    3.192837 H         1 <1>         0.023545 
     24 H           3.084209   -1.275387    2.057839 H         1 <1>         0.023545 
     25 H           0.378644    1.208979    3.187339 H         1 <1>         0.023545 
     26 H           1.162014    0.011755    4.257850 H         1 <1>         0.023545 
     27 H           2.147745    0.973917    3.132506 H         1 <1>         0.023545 
     28 H          -4.716143   -1.507933   -0.953729 H         1 <1>         0.027754 
     29 H          -3.692761   -2.607086    0.015976 H         1 <1>         0.027754 
     30 H          -4.323363   -1.092550    0.740067 H         1 <1>         0.027754 
     31 H           0.353165    2.021665   -3.924937 H         1 <1>         0.027771 
     32 H           1.422722    3.079191   -2.991613 H         1 <1>         0.027771 
     33 H           2.051663    1.571199   -3.711970 H         1 <1>         0.027771 
@<TRIPOS>BOND
     1    1    2 1    
     2    1   10 2    
     3    1   15 1    
     4    2    3 2    
     5    2   16 1    
     6    3    4 1    
     7    3   17 1    
     8    4    5 2    
     9    4   11 1    
    10    5    6 1    
    11    5   10 1    
    12    6    7 2    
    13    6   18 1    
    14    7    8 1    
    15    7   14 1    
    16    8    9 2    
    17    8   19 1    
    18    9   10 1    
    19    9   20 1    
    20   11   12 1    
    21   11   13 1    
    22   11   21 1    
    23   12   22 1    
    24   12   23 1    
    25   12   24 1    
    26   13   25 1    
    27   13   26 1    
    28   13   27 1    
    29   14   28 1    
    30   14   29 1    
    31   14   30 1    
    32   15   31 1    
    33   15   32 1    
    34   15   33 1    
@<TRIPOS>SUBSTRUCTURE
     1 ****        1 TEMP              0 ****  ****    0 ROOT 
@<TRIPOS>NORMAL
@<TRIPOS>FF_PBC
FORCE_FIELD_SETUP_FEATURE Force Field Setup information
v1.0  0 0.000000 0.000000 0.000000 0.000000 0.000000 0.000000 NONE 0 0 0 0 1 0 0 0 0 0 0 0 0
