@<TRIPOS>MOLECULE
MOL001240
   27    28     1     1     0
SMALL
GASTEIGER


@<TRIPOS>ATOM
      1 C           0.104574    0.861810    0.379366 C.3       1 <1>        -0.026087 
      2 C          -1.376786    0.394131    0.477205 C.3       1 <1>         0.018015 
      3 C          -1.459547   -1.122643    0.442360 C.2       1 <1>         0.136713 
      4 C          -0.194373   -1.919441    0.185852 C.3       1 <1>         0.009433 
      5 C           1.056035   -0.999870    0.113636 C.3       1 <1>        -0.028653 
      6 C           0.821263    0.205954   -0.836222 C.3       1 <1>        -0.028199 
      7 C           0.962827   -0.029043    1.318011 C.3       1 <1>        -0.045356 
      8 O          -2.522241   -1.695251    0.621337 O.2       1 <1>        -0.297106 
      9 C           2.146691    0.940468   -1.211351 C.3       1 <1>        -0.059277 
     10 C           0.010353   -0.043412   -2.145909 C.3       1 <1>        -0.059277 
     11 C          -2.073478    0.953852    1.748028 C.3       1 <1>        -0.055426 
     12 H           0.245767    1.950207    0.479220 H         1 <1>         0.031273 
     13 H          -1.930338    0.804704   -0.382740 H         1 <1>         0.037743 
     14 H          -0.062955   -2.628846    1.017778 H         1 <1>         0.034450 
     15 H          -0.291057   -2.506433   -0.739778 H         1 <1>         0.034450 
     16 H           2.011645   -1.535870   -0.007466 H         1 <1>         0.031013 
     17 H           1.926566    0.422465    1.598598 H         1 <1>         0.027123 
     18 H           0.483433   -0.435628    2.221537 H         1 <1>         0.027123 
     19 H           1.908345    1.890150   -1.713952 H         1 <1>         0.023516 
     20 H           2.728601    0.316580   -1.906643 H         1 <1>         0.023516 
     21 H           2.796206    1.174945   -0.357914 H         1 <1>         0.023516 
     22 H          -0.221116    0.925176   -2.614034 H         1 <1>         0.023516 
     23 H           0.627905   -0.628070   -2.844235 H         1 <1>         0.023516 
     24 H          -0.936633   -0.583647   -2.026726 H         1 <1>         0.023516 
     25 H          -3.140610    0.680427    1.745527 H         1 <1>         0.023650 
     26 H          -1.999138    2.052282    1.771125 H         1 <1>         0.023650 
     27 H          -1.622339    0.554902    2.667592 H         1 <1>         0.023650 
@<TRIPOS>BOND
     1    1    2 1    
     2    1    6 1    
     3    1    7 1    
     4    1   12 1    
     5    2    3 1    
     6    2   11 1    
     7    2   13 1    
     8    3    4 1    
     9    3    8 2    
    10    4    5 1    
    11    4   14 1    
    12    4   15 1    
    13    5    6 1    
    14    5    7 1    
    15    5   16 1    
    16    6    9 1    
    17    6   10 1    
    18    7   17 1    
    19    7   18 1    
    20    9   19 1    
    21    9   20 1    
    22    9   21 1    
    23   10   22 1    
    24   10   23 1    
    25   10   24 1    
    26   11   25 1    
    27   11   26 1    
    28   11   27 1    
@<TRIPOS>SUBSTRUCTURE
     1 ****        1 TEMP              0 ****  ****    0 ROOT 
@<TRIPOS>NORMAL
@<TRIPOS>FF_PBC
FORCE_FIELD_SETUP_FEATURE Force Field Setup information
v1.0  0 0.000000 0.000000 0.000000 0.000000 0.000000 0.000000 NONE 0 0 0 0 1 0 0 0 0 0 0 0 0
