@<TRIPOS>MOLECULE
MOL002366
   54    57     1     1     0
SMALL
GASTEIGER


@<TRIPOS>ATOM
      1 C           0.148484   -1.401294    1.533356 C.ar      1 <1>        -0.000811 
      2 C           0.332316   -2.841209    1.247288 C.ar      1 <1>         0.078973 
      3 C           0.821769   -3.254750    0.006931 C.ar      1 <1>        -0.020014 
      4 C           1.152205   -2.256387   -1.038187 C.ar      1 <1>         0.038005 
      5 C           0.970168   -0.871080   -0.778823 C.ar      1 <1>         0.063340 
      6 C           0.455384   -0.424897    0.542230 C.ar      1 <1>         0.093396 
      7 O           0.288490    0.945183    0.778478 O.3       1 <1>        -0.311739 
      8 C           1.303747    0.143751   -1.851794 C.2       1 <1>         0.199449 
      9 C           1.849407   -0.292621   -3.192750 C.ar      1 <1>         0.062824 
     10 C           2.037130   -1.738280   -3.455100 C.ar      1 <1>         0.035809 
     11 C           1.681044   -2.731240   -2.373135 C.2       1 <1>         0.194755 
     12 O           1.140282    1.337435   -1.659247 O.2       1 <1>        -0.286435 
     13 O           1.820938   -3.926642   -2.575437 O.2       1 <1>        -0.286608 
     14 C           2.543082   -2.173691   -4.702575 C.ar      1 <1>        -0.047151 
     15 C           2.889217   -1.190596   -5.758958 C.ar      1 <1>        -0.047307 
     16 C           2.714059    0.179754   -5.509184 C.ar      1 <1>        -0.028282 
     17 C           2.187123    0.659168   -4.210935 C.ar      1 <1>         0.084321 
     18 O           2.032379    2.034745   -4.013684 O.3       1 <1>        -0.359094 
     19 C           3.433601   -1.649338   -7.115388 C.3       1 <1>        -0.039609 
     20 C          -0.260464    1.451857    2.004766 C.3       1 <1>         0.193671 
     21 C          -0.344775    2.995610    1.907939 C.3       1 <1>         0.134509 
     22 C          -1.087244    3.559065    3.145475 C.3       1 <1>         0.114074 
     23 C          -2.460134    2.863112    3.319481 C.3       1 <1>         0.111896 
     24 C          -2.267553    1.323013    3.330239 C.3       1 <1>         0.113017 
     25 O          -1.579091    0.887075    2.141849 O.3       1 <1>        -0.340168 
     26 O           0.979495    3.562377    1.839561 O.3       1 <1>        -0.384091 
     27 O          -1.259161    4.978829    2.972560 O.3       1 <1>        -0.386401 
     28 O          -3.033134    3.326953    4.557867 O.3       1 <1>        -0.386488 
     29 C          -3.640816    0.606628    3.363278 C.3       1 <1>         0.073015 
     30 O          -4.407104    1.085409    4.486692 O.3       1 <1>        -0.392366 
     31 O           0.018189   -3.783624    2.224946 O.3       1 <1>        -0.347809 
     32 C          -1.233158   -4.458693    2.016092 C.3       1 <1>         0.043028 
     33 H          -0.221647   -1.130221    2.512686 H         1 <1>         0.066939 
     34 H           0.958496   -4.313020   -0.185875 H         1 <1>         0.065057 
     35 H           2.678521   -3.233648   -4.889712 H         1 <1>         0.062744 
     36 H           2.964823    0.907348   -6.273245 H         1 <1>         0.064604 
     37 H           1.695758    2.268818   -3.153121 H         1 <1>         0.217340 
     38 H           3.539082   -2.743357   -7.159386 H         1 <1>         0.027755 
     39 H           2.744073   -1.328126   -7.910394 H         1 <1>         0.027755 
     40 H           4.419446   -1.191723   -7.287198 H         1 <1>         0.027755 
     41 H           0.406841    1.186075    2.841881 H         1 <1>         0.094160 
     42 H          -0.917251    3.240149    0.996499 H         1 <1>         0.067108 
     43 H          -0.468680    3.364656    4.039410 H         1 <1>         0.064758 
     44 H          -3.103224    3.146927    2.468370 H         1 <1>         0.064673 
     45 H          -1.709105    1.035934    4.237713 H         1 <1>         0.064668 
     46 H           0.952565    4.512818    1.773138 H         1 <1>         0.210111 
     47 H          -1.718813    5.370976    3.710122 H         1 <1>         0.210005 
     48 H          -3.860039    2.891166    4.754694 H         1 <1>         0.210004 
     49 H          -3.470875   -0.481300    3.435506 H         1 <1>         0.058370 
     50 H          -4.174713    0.814867    2.420726 H         1 <1>         0.058370 
     51 H          -5.259079    0.662619    4.559988 H         1 <1>         0.209508 
     52 H          -1.387638   -5.160555    2.848817 H         1 <1>         0.052870 
     53 H          -1.228911   -5.027897    1.073810 H         1 <1>         0.052870 
     54 H          -2.065907   -3.738327    2.001739 H         1 <1>         0.052870 
@<TRIPOS>BOND
     1    1    2 1    
     2    1    6 2    
     3    1   33 1    
     4    2    3 2    
     5    2   31 1    
     6    3    4 1    
     7    3   34 1    
     8    4    5 2    
     9    4   11 1    
    10    5    6 1    
    11    5    8 1    
    12    6    7 1    
    13    7   20 1    
    14    8    9 1    
    15    8   12 2    
    16    9   10 1    
    17    9   17 2    
    18   10   11 1    
    19   10   14 2    
    20   11   13 2    
    21   14   15 1    
    22   14   35 1    
    23   15   16 2    
    24   15   19 1    
    25   16   17 1    
    26   16   36 1    
    27   17   18 1    
    28   18   37 1    
    29   19   38 1    
    30   19   39 1    
    31   19   40 1    
    32   20   21 1    
    33   20   25 1    
    34   20   41 1    
    35   21   22 1    
    36   21   26 1    
    37   21   42 1    
    38   22   23 1    
    39   22   27 1    
    40   22   43 1    
    41   23   24 1    
    42   23   28 1    
    43   23   44 1    
    44   24   25 1    
    45   24   29 1    
    46   24   45 1    
    47   26   46 1    
    48   27   47 1    
    49   28   48 1    
    50   29   30 1    
    51   29   49 1    
    52   29   50 1    
    53   30   51 1    
    54   31   32 1    
    55   32   52 1    
    56   32   53 1    
    57   32   54 1    
@<TRIPOS>SUBSTRUCTURE
     1 ****        1 TEMP              0 ****  ****    0 ROOT 
@<TRIPOS>NORMAL
@<TRIPOS>FF_PBC
FORCE_FIELD_SETUP_FEATURE Force Field Setup information
v1.0  0 0.000000 0.000000 0.000000 0.000000 0.000000 0.000000 NONE 0 0 0 0 1 0 0 0 0 0 0 0 0
