@<TRIPOS>MOLECULE
MOL002560
   29    31     1     1     0
SMALL
GASTEIGER


@<TRIPOS>ATOM
      1 C          -0.889107    2.108580    0.030255 C.ar      1 <1>         0.081945 
      2 C          -1.349586    0.706122   -0.003496 C.ar      1 <1>         0.098804 
      3 C           0.606152    2.289508    0.053278 C.2       1 <1>         0.193509 
      4 C          -1.817027    3.172697    0.039258 C.ar      1 <1>         0.088313 
      5 O          -0.426939   -0.342315   -0.012300 O.3       1 <1>        -0.307712 
      6 C          -2.718705    0.423047   -0.026861 C.ar      1 <1>        -0.000531 
      7 C           1.432852    1.075028    0.039983 C.2       1 <1>         0.016918 
      8 O           1.128790    3.391788    0.081898 O.2       1 <1>        -0.287017 
      9 C          -3.268731    2.859353    0.014217 C.ar      1 <1>        -0.001303 
     10 O          -1.366109    4.493511    0.071242 O.3       1 <1>        -0.358955 
     11 C           0.905992   -0.160345    0.008636 C.2       1 <1>         0.093863 
     12 C          -3.710869    1.528371   -0.017848 C.ar      1 <1>         0.077519 
     13 C           1.742605   -1.429001   -0.005635 C.ar      1 <1>         0.005594 
     14 O          -5.081945    1.266442   -0.040802 O.3       1 <1>        -0.359667 
     15 C           1.021830   -2.729624   -0.040274 C.ar      1 <1>        -0.052112 
     16 C           3.169304   -1.462685    0.011773 C.ar      1 <1>        -0.052112 
     17 C           1.716902   -3.949052   -0.055377 C.ar      1 <1>        -0.061122 
     18 C           3.897938   -2.754090   -0.004295 C.ar      1 <1>        -0.061122 
     19 C           3.196799   -3.962389   -0.036872 C.ar      1 <1>        -0.061721 
     20 H          -3.044177   -0.610763   -0.051555 H         1 <1>         0.066947 
     21 H           2.499616    1.274390    0.057845 H         1 <1>         0.068219 
     22 H          -4.002645    3.657270    0.020481 H         1 <1>         0.066923 
     23 H          -2.062509    5.140100    0.074819 H         1 <1>         0.217342 
     24 H          -5.295550    0.340339   -0.061658 H         1 <1>         0.217316 
     25 H          -0.062833   -2.750879   -0.054438 H         1 <1>         0.062424 
     26 H           3.764749   -0.560810    0.036968 H         1 <1>         0.062424 
     27 H           1.170818   -4.886954   -0.080698 H         1 <1>         0.061777 
     28 H           4.983476   -2.759488    0.009369 H         1 <1>         0.061777 
     29 H           3.731383   -4.907002   -0.048608 H         1 <1>         0.061759 
@<TRIPOS>BOND
     1    1    2 1    
     2    1    3 1    
     3    1    4 2    
     4    2    5 1    
     5    2    6 2    
     6    3    7 1    
     7    3    8 2    
     8    4    9 1    
     9    4   10 1    
    10    5   11 1    
    11    6   12 1    
    12    6   20 1    
    13    7   11 2    
    14    7   21 1    
    15    9   12 2    
    16    9   22 1    
    17   10   23 1    
    18   11   13 1    
    19   12   14 1    
    20   13   15 1    
    21   13   16 2    
    22   14   24 1    
    23   15   17 2    
    24   15   25 1    
    25   16   18 1    
    26   16   26 1    
    27   17   19 1    
    28   17   27 1    
    29   18   19 2    
    30   18   28 1    
    31   19   29 1    
@<TRIPOS>SUBSTRUCTURE
     1 ****        1 TEMP              0 ****  ****    0 ROOT 
@<TRIPOS>NORMAL
@<TRIPOS>FF_PBC
FORCE_FIELD_SETUP_FEATURE Force Field Setup information
v1.0  0 0.000000 0.000000 0.000000 0.000000 0.000000 0.000000 NONE 0 0 0 0 1 0 0 0 0 0 0 0 0
