@<TRIPOS>MOLECULE
MOL003920
   65    64     1     1     0
SMALL
GASTEIGER


@<TRIPOS>ATOM
      1 C         -11.513482   -0.739165   -0.000276 C.2       1 <1>         0.261905 
      2 C         -10.185930   -1.454399    0.000474 C.3       1 <1>         0.033189 
      3 C          -8.965003   -0.494293   -0.000187 C.3       1 <1>        -0.044055 
      4 C          -7.622775   -1.276496    0.000150 C.3       1 <1>        -0.052596 
      5 C          -6.408394   -0.307838   -0.000219 C.3       1 <1>        -0.053045 
      6 C          -5.061010   -1.081115    0.000058 C.3       1 <1>        -0.053057 
      7 C          -3.852630   -0.104896   -0.000195 C.3       1 <1>        -0.053057 
      8 C          -2.500027   -0.869164    0.000074 C.3       1 <1>        -0.053057 
      9 C          -1.299151    0.116306   -0.000146 C.3       1 <1>        -0.053057 
     10 C           0.059922   -0.635855    0.000113 C.3       1 <1>        -0.053057 
     11 C           1.252518    0.359933   -0.000120 C.3       1 <1>        -0.053057 
     12 C           2.615810   -0.384257    0.000133 C.3       1 <1>        -0.053057 
     13 C           3.805790    0.614630   -0.000126 C.3       1 <1>        -0.053057 
     14 C           5.168598   -0.130518    0.000109 C.3       1 <1>        -0.053057 
     15 C           6.361426    0.864684   -0.000148 C.3       1 <1>        -0.053057 
     16 C           7.721245    0.113613    0.000103 C.3       1 <1>        -0.053057 
     17 C           8.919061    1.102725   -0.000142 C.3       1 <1>        -0.053065 
     18 C          10.274887    0.344654    0.000114 C.3       1 <1>        -0.053306 
     19 C          11.476806    1.328144   -0.000127 C.3       1 <1>        -0.055911 
     20 C          12.827265    0.565162    0.000112 C.3       1 <1>        -0.065276 
     21 O         -12.558970   -1.370666   -0.001798 O.2       1 <1>        -0.264985 
     22 O         -11.465560    0.602089    0.000859 O.3       1 <1>        -0.318522 
     23 C         -12.761020    1.233102    0.000124 C.3       1 <1>         0.045865 
     24 H         -10.149841   -2.096849    0.894030 H         1 <1>         0.036606 
     25 H         -10.149614   -2.098213   -0.892109 H         1 <1>         0.036606 
     26 H          -9.012696    0.149008   -0.894648 H         1 <1>         0.027004 
     27 H          -9.012537    0.149989    0.893557 H         1 <1>         0.027004 
     28 H          -7.575334   -1.920369    0.893839 H         1 <1>         0.026540 
     29 H          -7.575289   -1.921064   -0.893004 H         1 <1>         0.026540 
     30 H          -6.457691    0.336302   -0.893613 H         1 <1>         0.026529 
     31 H          -6.457686    0.336920    0.892810 H         1 <1>         0.026529 
     32 H          -5.009519   -1.724705    0.893667 H         1 <1>         0.026528 
     33 H          -5.009470   -1.725198   -0.893095 H         1 <1>         0.026528 
     34 H          -3.906067    0.539004   -0.893573 H         1 <1>         0.026528 
     35 H          -3.906109    0.539498    0.892901 H         1 <1>         0.026528 
     36 H          -2.444361   -1.512512    0.893630 H         1 <1>         0.026528 
     37 H          -2.444305   -1.512958   -0.893105 H         1 <1>         0.026528 
     38 H          -1.357562    0.759568   -0.893593 H         1 <1>         0.026528 
     39 H          -1.357617    0.760021    0.892977 H         1 <1>         0.026528 
     40 H           0.121157   -1.278759    0.893597 H         1 <1>         0.026528 
     41 H           0.121211   -1.279212   -0.893049 H         1 <1>         0.026528 
     42 H           1.189884    1.002854   -0.893593 H         1 <1>         0.026528 
     43 H           1.189829    1.003302    0.893002 H         1 <1>         0.026528 
     44 H           2.679382   -1.026984    0.893659 H         1 <1>         0.026528 
     45 H           2.679434   -1.027450   -0.893068 H         1 <1>         0.026528 
     46 H           3.742366    1.257375   -0.893578 H         1 <1>         0.026528 
     47 H           3.742317    1.257838    0.893006 H         1 <1>         0.026528 
     48 H           5.231137   -0.773339    0.893648 H         1 <1>         0.026528 
     49 H           5.231180   -0.773790   -0.893023 H         1 <1>         0.026528 
     50 H           6.300017    1.507564   -0.893604 H         1 <1>         0.026528 
     51 H           6.299973    1.508045    0.893043 H         1 <1>         0.026528 
     52 H           7.781205   -0.529593    0.893565 H         1 <1>         0.026528 
     53 H           7.781242   -0.530045   -0.892949 H         1 <1>         0.026528 
     54 H           8.860944    1.746000   -0.893666 H         1 <1>         0.026528 
     55 H           8.860904    1.746481    0.893080 H         1 <1>         0.026528 
     56 H          10.332651   -0.298624    0.893595 H         1 <1>         0.026520 
     57 H          10.332689   -0.299095   -0.893009 H         1 <1>         0.026520 
     58 H          11.427108    1.972368   -0.893792 H         1 <1>         0.026265 
     59 H          11.427065    1.972849    0.893189 H         1 <1>         0.026265 
     60 H          13.666569    1.278711   -0.000058 H         1 <1>         0.022978 
     61 H          12.909028   -0.071019    0.895288 H         1 <1>         0.022978 
     62 H          12.909067   -0.071501   -0.894710 H         1 <1>         0.022978 
     63 H         -12.605450    2.322012    0.000971 H         1 <1>         0.052962 
     64 H         -13.336559    0.965147   -0.900507 H         1 <1>         0.052962 
     65 H         -13.338131    0.963943    0.899351 H         1 <1>         0.052962 
@<TRIPOS>BOND
     1    1    2 1    
     2    1   21 2    
     3    1   22 1    
     4    2    3 1    
     5    2   24 1    
     6    2   25 1    
     7    3    4 1    
     8    3   26 1    
     9    3   27 1    
    10    4    5 1    
    11    4   28 1    
    12    4   29 1    
    13    5    6 1    
    14    5   30 1    
    15    5   31 1    
    16    6    7 1    
    17    6   32 1    
    18    6   33 1    
    19    7    8 1    
    20    7   34 1    
    21    7   35 1    
    22    8    9 1    
    23    8   36 1    
    24    8   37 1    
    25    9   10 1    
    26    9   38 1    
    27    9   39 1    
    28   10   11 1    
    29   10   40 1    
    30   10   41 1    
    31   11   12 1    
    32   11   42 1    
    33   11   43 1    
    34   12   13 1    
    35   12   44 1    
    36   12   45 1    
    37   13   14 1    
    38   13   46 1    
    39   13   47 1    
    40   14   15 1    
    41   14   48 1    
    42   14   49 1    
    43   15   16 1    
    44   15   50 1    
    45   15   51 1    
    46   16   17 1    
    47   16   52 1    
    48   16   53 1    
    49   17   18 1    
    50   17   54 1    
    51   17   55 1    
    52   18   19 1    
    53   18   56 1    
    54   18   57 1    
    55   19   20 1    
    56   19   58 1    
    57   19   59 1    
    58   20   60 1    
    59   20   61 1    
    60   20   62 1    
    61   22   23 1    
    62   23   63 1    
    63   23   64 1    
    64   23   65 1    
@<TRIPOS>SUBSTRUCTURE
     1 ****        1 TEMP              0 ****  ****    0 ROOT 
@<TRIPOS>NORMAL
@<TRIPOS>FF_PBC
FORCE_FIELD_SETUP_FEATURE Force Field Setup information
v1.0  0 0.000000 0.000000 0.000000 0.000000 0.000000 0.000000 NONE 0 0 0 0 1 0 0 0 0 0 0 0 0
