@<TRIPOS>MOLECULE
MOL004978
   47    50     1     1     0
SMALL
GASTEIGER


@<TRIPOS>ATOM
      1 O          -0.545024    1.316589    0.406098 O.3       1 <1>        -0.343144 
      2 O          -4.866608   -0.988425    0.329267 O.3       1 <1>        -0.334125 
      3 O           3.399341    1.340877   -2.511350 O.3       1 <1>        -0.359468 
      4 O           7.273398   -0.016020    0.180538 O.3       1 <1>        -0.347830 
      5 C           1.489775    0.416652   -0.548876 C.3       1 <1>         0.014534 
      6 C           0.832592   -0.954950   -0.842885 C.3       1 <1>        -0.016187 
      7 C          -0.677891   -0.920624   -0.581839 C.ar      1 <1>        -0.016010 
      8 C           0.833462    1.056659    0.698144 C.3       1 <1>         0.061423 
      9 C          -1.291163    0.194661    0.040366 C.ar      1 <1>         0.088953 
     10 C          -2.745263    0.170214    0.318894 C.ar      1 <1>         0.035007 
     11 C           3.012048    0.271516   -0.371659 C.ar      1 <1>        -0.011921 
     12 C          -5.567243    0.270061    0.284022 C.3       1 <1>         0.088837 
     13 C          -3.512377   -0.952298   -0.007376 C.ar      1 <1>         0.086883 
     14 C          -1.511542   -2.084481   -0.974896 C.ar      1 <1>        -0.053632 
     15 C          -3.438063    1.341566    0.971070 C.2       1 <1>        -0.050887 
     16 C          -2.881717   -2.103211   -0.692545 C.ar      1 <1>        -0.030640 
     17 C          -4.775215    1.372432    0.955141 C.2       1 <1>        -0.051917 
     18 C           3.901442    0.751016   -1.349222 C.ar      1 <1>         0.078534 
     19 C           3.564335   -0.378472    0.845067 C.ar      1 <1>        -0.053345 
     20 C          -6.913505    0.064905    1.024439 C.3       1 <1>        -0.031936 
     21 C          -5.803599    0.644192   -1.201251 C.3       1 <1>        -0.031936 
     22 C           5.366671    0.633050   -1.136614 C.ar      1 <1>        -0.001645 
     23 C           4.945004   -0.480745    1.042300 C.ar      1 <1>        -0.031264 
     24 C           5.883318    0.049148    0.022356 C.ar      1 <1>         0.078267 
     25 C           7.858105   -0.663901    1.321141 C.3       1 <1>         0.043027 
     26 H           1.260841    1.099172   -1.384850 H         1 <1>         0.037526 
     27 H           1.243736   -1.723182   -0.170548 H         1 <1>         0.032055 
     28 H           1.038316   -1.258200   -1.881996 H         1 <1>         0.032055 
     29 H           0.880536    0.404909    1.583679 H         1 <1>         0.057101 
     30 H           1.321890    2.013817    0.938439 H         1 <1>         0.057101 
     31 H          -1.053446   -2.925478   -1.483223 H         1 <1>         0.062188 
     32 H          -2.849909    2.137517    1.430486 H         1 <1>         0.062283 
     33 H          -3.492060   -2.954396   -0.974463 H         1 <1>         0.064357 
     34 H          -5.298089    2.213390    1.414141 H         1 <1>         0.060053 
     35 H           2.900591   -0.787490    1.598614 H         1 <1>         0.062197 
     36 H          -6.721450   -0.161934    2.084408 H         1 <1>         0.026052 
     37 H          -7.540128    0.967974    0.964036 H         1 <1>         0.026052 
     38 H          -7.464436   -0.778374    0.580794 H         1 <1>         0.026052 
     39 H          -6.373511    1.582452   -1.279165 H         1 <1>         0.026052 
     40 H          -4.843016    0.772157   -1.722549 H         1 <1>         0.026052 
     41 H          -6.367097   -0.158454   -1.701118 H         1 <1>         0.026052 
     42 H           6.058585    1.006331   -1.882761 H         1 <1>         0.066918 
     43 H           5.304178   -0.956352    1.946427 H         1 <1>         0.064338 
     44 H           4.070988    1.643220   -3.112225 H         1 <1>         0.217326 
     45 H           8.952008   -0.597517    1.222849 H         1 <1>         0.052870 
     46 H           7.574495   -1.727591    1.350677 H         1 <1>         0.052870 
     47 H           7.564595   -0.163383    2.256918 H         1 <1>         0.052870 
@<TRIPOS>BOND
     1    8    1 1    
     2    1    9 1    
     3    2   12 1    
     4   13    2 1    
     5   18    3 1    
     6    3   44 1    
     7   24    4 1    
     8    4   25 1    
     9    5    6 1    
    10    5    8 1    
    11   11    5 1    
    12    5   26 1    
    13    6    7 1    
    14    6   27 1    
    15    6   28 1    
    16    7    9 2    
    17    7   14 1    
    18    8   29 1    
    19    8   30 1    
    20    9   10 1    
    21   10   13 2    
    22   10   15 1    
    23   18   11 2    
    24   11   19 1    
    25   17   12 1    
    26   12   20 1    
    27   12   21 1    
    28   16   13 1    
    29   14   16 2    
    30   14   31 1    
    31   15   17 2    
    32   15   32 1    
    33   16   33 1    
    34   17   34 1    
    35   22   18 1    
    36   19   23 2    
    37   19   35 1    
    38   20   36 1    
    39   20   37 1    
    40   20   38 1    
    41   21   39 1    
    42   21   40 1    
    43   21   41 1    
    44   22   24 2    
    45   22   42 1    
    46   23   24 1    
    47   23   43 1    
    48   25   45 1    
    49   25   46 1    
    50   25   47 1    
@<TRIPOS>SUBSTRUCTURE
     1 ****        5 TEMP              0 ****  ****    0 ROOT 
@<TRIPOS>NORMAL
@<TRIPOS>FF_PBC
FORCE_FIELD_SETUP_FEATURE Force Field Setup information
v1.0  0 0.000000 0.000000 0.000000 0.000000 0.000000 0.000000 NONE 0 0 0 0 1 0 0 0 0 0 0 0 0
