@<TRIPOS>MOLECULE
MOL003538
   39    41     1     1     0
SMALL
GASTEIGER


@<TRIPOS>ATOM
      1 C          -0.093640    0.724309    0.812059 C.3       1 <1>        -0.025521 
      2 C          -0.448462    0.009059   -0.519523 C.3       1 <1>        -0.013478 
      3 C           1.372924    1.186244    1.009474 C.3       1 <1>        -0.031441 
      4 C           0.248214    2.236100    0.813473 C.3       1 <1>        -0.028119 
      5 C           0.079204   -1.403023   -0.572947 C.2       1 <1>        -0.066917 
      6 C          -1.983139   -0.162743   -0.731443 C.3       1 <1>        -0.036788 
      7 C           2.334175    0.679172   -0.095490 C.3       1 <1>        -0.045736 
      8 C          -0.210614    2.975805    2.098706 C.3       1 <1>        -0.059271 
      9 C           0.171247    3.078863   -0.489651 C.3       1 <1>        -0.059271 
     10 C           1.343900   -1.781875   -0.306574 C.2       1 <1>        -0.073081 
     11 C          -0.995021   -2.376967   -0.994892 C.3       1 <1>        -0.030957 
     12 C          -2.054979   -1.435030   -1.612366 C.3       1 <1>        -0.046202 
     13 C          -2.803536   -0.346939    0.577361 C.3       1 <1>        -0.061856 
     14 C           2.502227   -0.857846    0.037539 C.3       1 <1>        -0.031466 
     15 C           1.723351   -3.250001   -0.346568 C.3       1 <1>        -0.043525 
     16 H          -0.448601    0.256620    1.743782 H         1 <1>         0.031468 
     17 H          -0.088970    0.502334   -1.431110 H         1 <1>         0.035121 
     18 H           1.733198    1.076811    2.046928 H         1 <1>         0.030914 
     19 H          -2.416126    0.704040   -1.263126 H         1 <1>         0.030402 
     20 H           3.301383    1.165132    0.113428 H         1 <1>         0.027122 
     21 H           2.087897    0.927206   -1.133775 H         1 <1>         0.027122 
     22 H           0.438396    3.849023    2.261444 H         1 <1>         0.023516 
     23 H          -1.245992    3.321892    1.962745 H         1 <1>         0.023516 
     24 H          -0.170562    2.344043    2.999271 H         1 <1>         0.023516 
     25 H           0.662905    2.662261   -1.374208 H         1 <1>         0.023516 
     26 H           0.639904    4.054275   -0.292870 H         1 <1>         0.023516 
     27 H          -0.889037    3.245458   -0.729763 H         1 <1>         0.023516 
     28 H          -0.657424   -3.119981   -1.735410 H         1 <1>         0.031024 
     29 H          -1.398853   -2.899108   -0.113801 H         1 <1>         0.031024 
     30 H          -1.750094   -1.175428   -2.640965 H         1 <1>         0.027105 
     31 H          -3.056983   -1.891371   -1.654303 H         1 <1>         0.027105 
     32 H          -3.848679   -0.593287    0.333449 H         1 <1>         0.023260 
     33 H          -2.811461    0.588388    1.158683 H         1 <1>         0.023260 
     34 H          -2.399101   -1.151653    1.208036 H         1 <1>         0.023260 
     35 H           2.819082   -1.082758    1.068985 H         1 <1>         0.031007 
     36 H           3.331724   -1.136568   -0.633902 H         1 <1>         0.031007 
     37 H           0.908470   -3.907785   -0.011548 H         1 <1>         0.027444 
     38 H           2.003744   -3.519654   -1.375557 H         1 <1>         0.027444 
     39 H           2.582420   -3.455091    0.310136 H         1 <1>         0.027444 
@<TRIPOS>BOND
     1    1    2 1    
     2    1    3 1    
     3    1    4 1    
     4    1   16 1    
     5    2    5 1    
     6    2    6 1    
     7    2   17 1    
     8    3    4 1    
     9    3    7 1    
    10    3   18 1    
    11    4    8 1    
    12    4    9 1    
    13    5   10 2    
    14    5   11 1    
    15    6   12 1    
    16    6   13 1    
    17    6   19 1    
    18    7   14 1    
    19    7   20 1    
    20    7   21 1    
    21    8   22 1    
    22    8   23 1    
    23    8   24 1    
    24    9   25 1    
    25    9   26 1    
    26    9   27 1    
    27   10   14 1    
    28   10   15 1    
    29   11   12 1    
    30   11   28 1    
    31   11   29 1    
    32   12   30 1    
    33   12   31 1    
    34   13   32 1    
    35   13   33 1    
    36   13   34 1    
    37   14   35 1    
    38   14   36 1    
    39   15   37 1    
    40   15   38 1    
    41   15   39 1    
@<TRIPOS>SUBSTRUCTURE
     1 ****        1 TEMP              0 ****  ****    0 ROOT 
@<TRIPOS>NORMAL
@<TRIPOS>FF_PBC
FORCE_FIELD_SETUP_FEATURE Force Field Setup information
v1.0  0 0.000000 0.000000 0.000000 0.000000 0.000000 0.000000 NONE 0 0 0 0 1 0 0 0 0 0 0 0 0
