@<TRIPOS>MOLECULE
MOL000613
   39    39     1     1     0
SMALL
GASTEIGER


@<TRIPOS>ATOM
      1 C          -1.412054    1.270533   -0.231312 C.2       1 <1>        -0.076223 
      2 C          -0.665622    2.190694   -0.864269 C.2       1 <1>        -0.084718 
      3 C          -0.205982    2.146656   -2.307946 C.3       1 <1>        -0.030839 
      4 C           0.974206    1.152890   -2.530023 C.3       1 <1>        -0.028553 
      5 C           1.724789    0.931382   -1.230535 C.2       1 <1>        -0.075941 
      6 C           1.606744   -0.152912   -0.440487 C.2       1 <1>        -0.081016 
      7 C           0.785898   -1.415501   -0.641380 C.3       1 <1>        -0.013044 
      8 C          -0.291572   -1.597670    0.416600 C.2       1 <1>        -0.066789 
      9 C          -1.714074   -1.288064   -0.046948 C.3       1 <1>        -0.027538 
     10 C          -1.930734    0.006984   -0.887359 C.3       1 <1>        -0.028301 
     11 C          -0.021084   -2.036775    1.667146 C.2       1 <1>        -0.076157 
     12 C          -1.117043   -2.278376    2.690697 C.3       1 <1>        -0.043786 
     13 C           1.368411   -2.352125    2.195712 C.3       1 <1>        -0.043786 
     14 C           2.657577    2.064958   -0.845143 C.3       1 <1>        -0.043769 
     15 C          -1.790444    1.464562    1.222019 C.3       1 <1>        -0.043778 
     16 H          -0.340450    3.061189   -0.292010 H         1 <1>         0.057163 
     17 H          -1.048933    1.923838   -2.981637 H         1 <1>         0.031044 
     18 H           0.134525    3.162492   -2.572062 H         1 <1>         0.031044 
     19 H           0.598026    0.222236   -2.968437 H         1 <1>         0.031285 
     20 H           1.668588    1.558440   -3.284210 H         1 <1>         0.031285 
     21 H           2.185219   -0.140977    0.481224 H         1 <1>         0.057470 
     22 H           1.476373   -2.270142   -0.614467 H         1 <1>         0.035246 
     23 H           0.334221   -1.508195   -1.632746 H         1 <1>         0.035246 
     24 H          -2.426724   -1.218308    0.785028 H         1 <1>         0.031320 
     25 H          -2.034253   -2.147913   -0.657668 H         1 <1>         0.031320 
     26 H          -1.515275   -0.138426   -1.890652 H         1 <1>         0.031294 
     27 H          -3.013886    0.153539   -1.033046 H         1 <1>         0.031294 
     28 H          -0.734756   -2.773336    3.596532 H         1 <1>         0.027435 
     29 H          -1.569062   -1.328638    3.010693 H         1 <1>         0.027435 
     30 H          -1.893310   -2.939141    2.276010 H         1 <1>         0.027435 
     31 H           1.389287   -3.399953    2.531820 H         1 <1>         0.027435 
     32 H           1.563418   -1.704549    3.063970 H         1 <1>         0.027435 
     33 H           2.209307   -2.229470    1.505647 H         1 <1>         0.027435 
     34 H           3.095655    1.957211    0.158484 H         1 <1>         0.027436 
     35 H           3.484187    2.106226   -1.570141 H         1 <1>         0.027436 
     36 H           2.127419    3.027503   -0.872483 H         1 <1>         0.027436 
     37 H          -1.647334    2.499159    1.568564 H         1 <1>         0.027436 
     38 H          -2.848556    1.207768    1.380340 H         1 <1>         0.027436 
     39 H          -1.162400    0.812315    1.844377 H         1 <1>         0.027436 
@<TRIPOS>BOND
     1    1    2 2    
     2    1   10 1    
     3    1   15 1    
     4    2    3 1    
     5    2   16 1    
     6    3    4 1    
     7    3   17 1    
     8    3   18 1    
     9    4    5 1    
    10    4   19 1    
    11    4   20 1    
    12    5    6 2    
    13    5   14 1    
    14    6    7 1    
    15    6   21 1    
    16    7    8 1    
    17    7   22 1    
    18    7   23 1    
    19    8    9 1    
    20    8   11 2    
    21    9   10 1    
    22    9   24 1    
    23    9   25 1    
    24   10   26 1    
    25   10   27 1    
    26   11   12 1    
    27   11   13 1    
    28   12   28 1    
    29   12   29 1    
    30   12   30 1    
    31   13   31 1    
    32   13   32 1    
    33   13   33 1    
    34   14   34 1    
    35   14   35 1    
    36   14   36 1    
    37   15   37 1    
    38   15   38 1    
    39   15   39 1    
@<TRIPOS>SUBSTRUCTURE
     1 ****        1 TEMP              0 ****  ****    0 ROOT 
@<TRIPOS>NORMAL
@<TRIPOS>FF_PBC
FORCE_FIELD_SETUP_FEATURE Force Field Setup information
v1.0  0 0.000000 0.000000 0.000000 0.000000 0.000000 0.000000 NONE 0 0 0 0 1 0 0 0 0 0 0 0 0
