@<TRIPOS>MOLECULE
MOL005829
   41    40     1     1     0
SMALL
GASTEIGER


@<TRIPOS>ATOM
      1 C          -1.866573    3.232747   -0.000110 C.3       1 <1>        -0.028873 
      2 C          -0.558115    2.395914    0.000098 C.3       1 <1>        -0.050962 
      3 C          -1.573028    4.754162    0.000079 C.3       1 <1>         0.057053 
      4 C          -0.861544    0.872541   -0.000121 C.3       1 <1>        -0.052986 
      5 O          -2.834766    5.452372   -0.000100 O.3       1 <1>        -0.315403 
      6 C           0.447750    0.036896    0.000101 C.3       1 <1>        -0.053056 
      7 C          -2.716708    6.788056    0.000032 C.2       1 <1>         0.259041 
      8 C           0.149920   -1.487686   -0.000127 C.3       1 <1>        -0.053057 
      9 C          -4.020351    7.535783   -0.000139 C.3       1 <1>         0.021433 
     10 O          -1.644152    7.372309    0.000269 O.2       1 <1>        -0.265283 
     11 C           1.463405   -2.317045    0.000105 C.3       1 <1>        -0.053057 
     12 C           1.174305   -3.843134   -0.000123 C.3       1 <1>        -0.053065 
     13 C           2.491564   -4.666559    0.000109 C.3       1 <1>        -0.053306 
     14 C           2.205378   -6.193015   -0.000122 C.3       1 <1>        -0.055911 
     15 C           3.521604   -7.013418    0.000114 C.3       1 <1>        -0.065276 
     16 H          -2.465006    2.988298   -0.893143 H         1 <1>         0.028748 
     17 H          -2.465399    2.988146    0.892635 H         1 <1>         0.028748 
     18 H           0.035867    2.649185    0.893704 H         1 <1>         0.026599 
     19 H           0.036274    2.649358   -0.893156 H         1 <1>         0.026599 
     20 H          -0.987913    5.013249    0.898964 H         1 <1>         0.056579 
     21 H          -0.987558    5.013405   -0.898528 H         1 <1>         0.056579 
     22 H          -1.455554    0.619154   -0.893665 H         1 <1>         0.026529 
     23 H          -1.455989    0.618975    0.893131 H         1 <1>         0.026529 
     24 H           1.041425    0.291325    0.893637 H         1 <1>         0.026528 
     25 H           1.041852    0.291512   -0.893050 H         1 <1>         0.026528 
     26 H          -0.443073   -1.743434   -0.893643 H         1 <1>         0.026528 
     27 H          -0.443519   -1.743628    0.893081 H         1 <1>         0.026528 
     28 H          -3.845725    8.622228    0.000021 H         1 <1>         0.033023 
     29 H          -4.597488    7.265782   -0.896703 H         1 <1>         0.033023 
     30 H          -4.597839    7.265574    0.896136 H         1 <1>         0.033023 
     31 H           2.055720   -2.059692    0.893659 H         1 <1>         0.026528 
     32 H           2.056157   -2.059499   -0.893076 H         1 <1>         0.026528 
     33 H           0.582766   -4.102037   -0.893668 H         1 <1>         0.026528 
     34 H           0.582317   -4.102233    0.893087 H         1 <1>         0.026528 
     35 H           3.083587   -4.408095    0.893572 H         1 <1>         0.026520 
     36 H           3.084030   -4.407901   -0.892994 H         1 <1>         0.026520 
     37 H           1.615927   -6.458059   -0.893789 H         1 <1>         0.026265 
     38 H           1.615484   -6.458255    0.893205 H         1 <1>         0.026265 
     39 H           3.296013   -8.091582   -0.000057 H         1 <1>         0.022978 
     40 H           4.119309   -6.780995    0.895271 H         1 <1>         0.022978 
     41 H           4.119748   -6.780804   -0.894696 H         1 <1>         0.022978 
@<TRIPOS>BOND
     1    1    2 1    
     2    1    3 1    
     3    1   16 1    
     4    1   17 1    
     5    2    4 1    
     6    2   18 1    
     7    2   19 1    
     8    3    5 1    
     9    3   20 1    
    10    3   21 1    
    11    4    6 1    
    12    4   22 1    
    13    4   23 1    
    14    5    7 1    
    15    6    8 1    
    16    6   24 1    
    17    6   25 1    
    18    7    9 1    
    19    7   10 2    
    20    8   11 1    
    21    8   26 1    
    22    8   27 1    
    23    9   28 1    
    24    9   29 1    
    25    9   30 1    
    26   11   12 1    
    27   11   31 1    
    28   11   32 1    
    29   12   13 1    
    30   12   33 1    
    31   12   34 1    
    32   13   14 1    
    33   13   35 1    
    34   13   36 1    
    35   14   15 1    
    36   14   37 1    
    37   14   38 1    
    38   15   39 1    
    39   15   40 1    
    40   15   41 1    
@<TRIPOS>SUBSTRUCTURE
     1 ****        1 TEMP              0 ****  ****    0 ROOT 
@<TRIPOS>NORMAL
@<TRIPOS>FF_PBC
FORCE_FIELD_SETUP_FEATURE Force Field Setup information
v1.0  0 0.000000 0.000000 0.000000 0.000000 0.000000 0.000000 NONE 0 0 0 0 1 0 0 0 0 0 0 0 0
