@<TRIPOS>MOLECULE
MOL012245
   36    38     1     1     0
SMALL
GASTEIGER


@<TRIPOS>ATOM
      1 C           6.891354    0.053660   -0.430595 C.3       1 <1>         0.097162 
      2 C           7.072626   -1.362289    0.161760 C.3       1 <1>         0.041565 
      3 C           5.821549   -2.145076   -0.120498 C.2       1 <1>         0.170991 
      4 O           5.891103   -3.343212   -0.336588 O.2       1 <1>        -0.291782 
      5 C           4.498878   -1.413005   -0.122662 C.ar      1 <1>         0.079769 
      6 C           3.204320   -2.123569   -0.256321 C.ar      1 <1>         0.118114 
      7 C           1.991807   -1.408363   -0.242880 C.ar      1 <1>         0.136004 
      8 C           2.008559    0.076626   -0.103384 C.ar      1 <1>         0.107515 
      9 C           3.243627    0.737724    0.017450 C.ar      1 <1>         0.001519 
     10 C           4.516049   -0.017369    0.008886 C.ar      1 <1>         0.092530 
     11 O           5.723453    0.673645    0.137650 O.3       1 <1>        -0.335583 
     12 C           8.116318    0.918823   -0.104005 C.ar      1 <1>        -0.017820 
     13 C           9.137848    1.213936   -1.139468 C.ar      1 <1>        -0.053661 
     14 C          10.247079    2.008906   -0.828389 C.ar      1 <1>        -0.031601 
     15 C          10.419663    2.562234    0.534281 C.ar      1 <1>         0.072600 
     16 C           9.456829    2.281206    1.517017 C.ar      1 <1>        -0.031601 
     17 C           8.279117    1.443545    1.185686 C.ar      1 <1>        -0.053661 
     18 O           0.804495   -2.148562   -0.364877 O.3       1 <1>        -0.342946 
     19 C          -0.499404   -1.551351   -0.305831 C.3       1 <1>         0.043242 
     20 O          11.538689    3.351854    0.811793 O.3       1 <1>        -0.359832 
     21 O           0.814765    0.806839   -0.091571 O.3       1 <1>        -0.357150 
     22 O           3.190909   -3.514592   -0.393535 O.3       1 <1>        -0.356597 
     23 H           6.759072   -0.009537   -1.523605 H         1 <1>         0.065571 
     24 H           7.216725   -1.308167    1.251484 H         1 <1>         0.037400 
     25 H           7.947837   -1.854353   -0.291739 H         1 <1>         0.037400 
     26 H           3.288285    1.816127    0.118646 H         1 <1>         0.067016 
     27 H           9.030035    0.815709   -2.142467 H         1 <1>         0.062190 
     28 H          10.993755    2.227643   -1.583802 H         1 <1>         0.064329 
     29 H           9.562929    2.671443    2.523328 H         1 <1>         0.064329 
     30 H           7.540147    1.239908    1.953326 H         1 <1>         0.062190 
     31 H          -1.232765   -2.364856   -0.405799 H         1 <1>         0.052872 
     32 H          -0.667215   -1.050976    0.660368 H         1 <1>         0.052872 
     33 H          -0.654837   -0.846703   -1.136607 H         1 <1>         0.052872 
     34 H          11.579289    3.673594    1.705472 H         1 <1>         0.217313 
     35 H           0.918488    1.746565   -0.194805 H         1 <1>         0.217424 
     36 H           2.304820   -3.857703   -0.467717 H         1 <1>         0.217446 
@<TRIPOS>BOND
     1    1    2 1    
     2    1   11 1    
     3    1   12 1    
     4    1   23 1    
     5    2    3 1    
     6    2   24 1    
     7    2   25 1    
     8    3    4 2    
     9    3    5 1    
    10    5    6 1    
    11    5   10 2    
    12    6    7 2    
    13    6   22 1    
    14    7    8 1    
    15    7   18 1    
    16    8    9 2    
    17    8   21 1    
    18    9   10 1    
    19    9   26 1    
    20   10   11 1    
    21   12   13 1    
    22   12   17 2    
    23   13   14 2    
    24   13   27 1    
    25   14   15 1    
    26   14   28 1    
    27   15   16 2    
    28   15   20 1    
    29   16   17 1    
    30   16   29 1    
    31   17   30 1    
    32   18   19 1    
    33   19   31 1    
    34   19   32 1    
    35   19   33 1    
    36   20   34 1    
    37   21   35 1    
    38   22   36 1    
@<TRIPOS>SUBSTRUCTURE
     1 ****        1 TEMP              0 ****  ****    0 ROOT 
@<TRIPOS>NORMAL
@<TRIPOS>FF_PBC
FORCE_FIELD_SETUP_FEATURE Force Field Setup information
v1.0  0 0.000000 0.000000 0.000000 0.000000 0.000000 0.000000 NONE 0 0 0 0 1 0 0 0 0 0 0 0 0
