@<TRIPOS>MOLECULE
MOL002189
   28    29     1     1     0
SMALL
GASTEIGER


@<TRIPOS>ATOM
      1 C           0.270742   -0.531857    1.413067 C.ar      1 <1>        -0.005432 
      2 C           1.602825   -0.417024    2.002088 C.ar      1 <1>         0.052126 
      3 C           0.403532   -1.320987    0.106811 C.3       1 <1>         0.094051 
      4 C          -0.838890    0.018991    2.043576 C.ar      1 <1>        -0.055354 
      5 C           2.473376   -1.228400    1.085518 C.2       1 <1>         0.294719 
      6 C           1.870983    0.288264    3.153923 C.ar      1 <1>        -0.048527 
      7 O           1.774080   -1.816964    0.103837 O.3       1 <1>        -0.303359 
      8 C           0.268094   -0.423505   -1.153098 C.3       1 <1>        -0.021804 
      9 C          -0.613060    0.786605    3.295061 C.ar      1 <1>        -0.061380 
     10 O           3.677419   -1.361524    1.226366 O.2       1 <1>        -0.259195 
     11 C           0.719313    0.930076    3.835578 C.ar      1 <1>        -0.061001 
     12 C          -1.142490    0.201246   -1.332473 C.3       1 <1>        -0.050630 
     13 C          -1.291226    1.026895   -2.643510 C.3       1 <1>        -0.055821 
     14 C          -1.217601    0.168467   -3.934947 C.3       1 <1>        -0.065275 
     15 H          -0.307116   -2.162627    0.081788 H         1 <1>         0.065263 
     16 H          -1.837042   -0.100088    1.637329 H         1 <1>         0.062131 
     17 H           2.878528    0.358625    3.549367 H         1 <1>         0.062537 
     18 H           0.502563   -1.067093   -2.013976 H         1 <1>         0.029362 
     19 H           1.022962    0.378302   -1.108783 H         1 <1>         0.029362 
     20 H          -1.454631    1.246673    3.802665 H         1 <1>         0.061768 
     21 H           0.879409    1.502360    4.743628 H         1 <1>         0.061778 
     22 H          -1.328508    0.892163   -0.495640 H         1 <1>         0.026610 
     23 H          -1.908083   -0.591050   -1.305716 H         1 <1>         0.026610 
     24 H          -2.276198    1.524911   -2.625295 H         1 <1>         0.026266 
     25 H          -0.517384    1.811645   -2.680366 H         1 <1>         0.026266 
     26 H          -1.469347    0.789626   -4.809405 H         1 <1>         0.022978 
     27 H          -0.208151   -0.237795   -4.093882 H         1 <1>         0.022978 
     28 H          -1.934202   -0.665932   -3.883809 H         1 <1>         0.022978 
@<TRIPOS>BOND
     1    1    2 1    
     2    1    3 1    
     3    1    4 2    
     4    2    5 1    
     5    2    6 2    
     6    3    7 1    
     7    3    8 1    
     8    3   15 1    
     9    4    9 1    
    10    4   16 1    
    11    5    7 1    
    12    5   10 2    
    13    6   11 1    
    14    6   17 1    
    15    8   12 1    
    16    8   18 1    
    17    8   19 1    
    18    9   11 2    
    19    9   20 1    
    20   11   21 1    
    21   12   13 1    
    22   12   22 1    
    23   12   23 1    
    24   13   14 1    
    25   13   24 1    
    26   13   25 1    
    27   14   26 1    
    28   14   27 1    
    29   14   28 1    
@<TRIPOS>SUBSTRUCTURE
     1 ****        1 TEMP              0 ****  ****    0 ROOT 
@<TRIPOS>NORMAL
@<TRIPOS>FF_PBC
FORCE_FIELD_SETUP_FEATURE Force Field Setup information
v1.0  0 0.000000 0.000000 0.000000 0.000000 0.000000 0.000000 NONE 0 0 0 0 1 0 0 0 0 0 0 0 0
