@<TRIPOS>MOLECULE
MOL003450
   35    34     1     1     0
SMALL
GASTEIGER


@<TRIPOS>ATOM
      1 C          -7.738414    0.656446   -0.000090 C.2       1 <1>         0.142804 
      2 C          -6.495289   -0.136544   -0.000003 C.2       1 <1>        -0.026368 
      3 C          -5.272820    0.410664    0.000077 C.2       1 <1>        -0.080990 
      4 C          -4.024722   -0.439999    0.000178 C.3       1 <1>        -0.034373 
      5 C          -2.734292    0.423209   -0.000074 C.3       1 <1>        -0.049606 
      6 C          -1.457089   -0.460776    0.000091 C.3       1 <1>        -0.052779 
      7 C          -0.170687    0.409896   -0.000124 C.3       1 <1>        -0.053048 
      8 C           1.110427   -0.468446    0.000083 C.3       1 <1>        -0.053057 
      9 C           2.393696    0.406904   -0.000120 C.3       1 <1>        -0.053065 
     10 C           3.677293   -0.467709    0.000099 C.3       1 <1>        -0.053306 
     11 C           4.958274    0.410522   -0.000113 C.3       1 <1>        -0.055911 
     12 C           6.240519   -0.461843    0.000094 C.3       1 <1>        -0.065276 
     13 O          -8.819645    0.090959   -0.000137 O.2       1 <1>        -0.296330 
     14 H          -7.716024    1.745864   -0.000107 H         1 <1>         0.107505 
     15 H          -6.596561   -1.222349   -0.000012 H         1 <1>         0.064624 
     16 H          -5.176307    1.497279    0.000092 H         1 <1>         0.057298 
     17 H          -4.035524   -1.083941    0.894415 H         1 <1>         0.030742 
     18 H          -4.035622   -1.084351   -0.893774 H         1 <1>         0.030742 
     19 H          -2.732005    1.068516   -0.894289 H         1 <1>         0.026822 
     20 H          -2.731925    1.068924    0.893800 H         1 <1>         0.026822 
     21 H          -1.460383   -1.106600    0.893571 H         1 <1>         0.026538 
     22 H          -1.460424   -1.107007   -0.893158 H         1 <1>         0.026538 
     23 H          -0.168609    1.055892   -0.893576 H         1 <1>         0.026529 
     24 H          -0.168599    1.056309    0.892961 H         1 <1>         0.026529 
     25 H           1.109704   -1.114281    0.893557 H         1 <1>         0.026528 
     26 H           1.109705   -1.114722   -0.893134 H         1 <1>         0.026528 
     27 H           2.393863    1.052838   -0.893599 H         1 <1>         0.026528 
     28 H           2.393854    1.053262    0.892989 H         1 <1>         0.026528 
     29 H           3.679025   -1.113492    0.893584 H         1 <1>         0.026520 
     30 H           3.679033   -1.113944   -0.893118 H         1 <1>         0.026520 
     31 H           4.962764    1.056870   -0.893759 H         1 <1>         0.026265 
     32 H           4.962758    1.057297    0.893177 H         1 <1>         0.026265 
     33 H           7.135699    0.180118   -0.000065 H         1 <1>         0.022978 
     34 H           6.269313   -1.102462    0.895291 H         1 <1>         0.022978 
     35 H           6.269316   -1.102906   -0.894806 H         1 <1>         0.022978 
@<TRIPOS>BOND
     1    1    2 1    
     2    1   13 2    
     3    1   14 1    
     4    2    3 2    
     5    2   15 1    
     6    3    4 1    
     7    3   16 1    
     8    4    5 1    
     9    4   17 1    
    10    4   18 1    
    11    5    6 1    
    12    5   19 1    
    13    5   20 1    
    14    6    7 1    
    15    6   21 1    
    16    6   22 1    
    17    7    8 1    
    18    7   23 1    
    19    7   24 1    
    20    8    9 1    
    21    8   25 1    
    22    8   26 1    
    23    9   10 1    
    24    9   27 1    
    25    9   28 1    
    26   10   11 1    
    27   10   29 1    
    28   10   30 1    
    29   11   12 1    
    30   11   31 1    
    31   11   32 1    
    32   12   33 1    
    33   12   34 1    
    34   12   35 1    
@<TRIPOS>SUBSTRUCTURE
     1 ****        1 TEMP              0 ****  ****    0 ROOT 
@<TRIPOS>NORMAL
@<TRIPOS>FF_PBC
FORCE_FIELD_SETUP_FEATURE Force Field Setup information
v1.0  0 0.000000 0.000000 0.000000 0.000000 0.000000 0.000000 NONE 0 0 0 0 1 0 0 0 0 0 0 0 0
