@<TRIPOS>MOLECULE
MOL012944
   93    96     1     1     0
SMALL
GASTEIGER


@<TRIPOS>ATOM
      1 O           3.026207    3.289518    0.164550 O.3       1 <1>        -0.339013 
      2 O           2.577619   -0.332284    1.329136 O.2       1 <1>        -0.273441 
      3 O          -0.479943   -0.645148   -0.355057 O.2       1 <1>        -0.273534 
      4 O           4.604324   -3.740781   -0.948327 O.2       1 <1>        -0.273440 
      5 O          -4.290351    1.333561    1.164968 O.2       1 <1>        -0.274067 
      6 O           7.118976    1.144976    1.812438 O.3       1 <1>        -0.347242 
      7 N           0.130568    1.226103    0.722676 N.am      1 <1>        -0.285780 
      8 N           2.288921   -0.984821   -0.785824 N.am      1 <1>        -0.288307 
      9 N          -3.060945   -0.435559    0.491202 N.am      1 <1>        -0.302439 
     10 N           5.075945   -1.601633   -0.461716 N.am      1 <1>        -0.290409 
     11 N          -6.639254    0.244636    0.209225 N.3       1 <1>        -0.297428 
     12 C           1.441991    1.276493    0.058985 C.3       1 <1>         0.128916 
     13 C           2.067325    2.463552    0.860654 C.3       1 <1>         0.093599 
     14 C           0.852995    3.348734    1.202071 C.3       1 <1>        -0.007985 
     15 C          -0.223960    2.325186    1.612478 C.3       1 <1>         0.018040 
     16 C           2.148873   -0.067905    0.217682 C.2       1 <1>         0.239289 
     17 C           2.724165   -2.359901   -0.486394 C.3       1 <1>         0.102561 
     18 C           1.945164   -0.686053   -2.173054 C.3       1 <1>         0.015579 
     19 C           1.935105   -3.048305   -1.627113 C.3       1 <1>        -0.024332 
     20 C           2.150830   -2.080657   -2.814631 C.3       1 <1>        -0.034988 
     21 C          -0.700101    0.163673    0.529838 C.2       1 <1>         0.236853 
     22 C          -1.931739   -0.117679    1.372549 C.3       1 <1>         0.102150 
     23 C          -1.678874   -1.264764    2.405705 C.3       1 <1>        -0.017139 
     24 C           4.216651   -2.624093   -0.644201 C.2       1 <1>         0.237321 
     25 C          -1.023345   -2.536735    1.778757 C.3       1 <1>        -0.051175 
     26 C          -3.014426   -1.596260    3.131188 C.3       1 <1>        -0.060281 
     27 C          -5.325143   -0.019046   -0.454166 C.3       1 <1>         0.089339 
     28 C           4.202966    2.596520   -0.076187 C.ar      1 <1>         0.079115 
     29 C          -4.173252    0.340326    0.465633 C.2       1 <1>         0.231107 
     30 C          -5.124243    0.740624   -1.806048 C.3       1 <1>        -0.020006 
     31 C          -0.805949   -3.698086    2.785939 C.3       1 <1>        -0.064964 
     32 C          -3.787454    0.336113   -2.503930 C.3       1 <1>        -0.051437 
     33 C           5.124528    2.390288    0.968710 C.ar      1 <1>        -0.001068 
     34 C           4.463601    2.060150   -1.429470 C.ar      1 <1>        -0.030947 
     35 C          -5.212426    2.279559   -1.591676 C.3       1 <1>        -0.060544 
     36 C           6.429787   -1.621175   -0.632058 C.2       1 <1>        -0.003050 
     37 C           6.238808    1.436705    0.772176 C.ar      1 <1>         0.085412 
     38 C           6.327559    0.764353   -0.447849 C.ar      1 <1>         0.006287 
     39 C           5.512570    1.176598   -1.615062 C.ar      1 <1>        -0.049651 
     40 C          -6.805909   -0.469926    1.504035 C.3       1 <1>        -0.012325 
     41 C          -7.851397    0.123514   -0.643430 C.3       1 <1>        -0.012325 
     42 C           7.153439   -0.488611   -0.592354 C.2       1 <1>        -0.038231 
     43 C          -3.642128    0.919860   -3.935340 C.3       1 <1>        -0.064973 
     44 C           8.159923    2.120453    1.976975 C.3       1 <1>         0.043052 
     45 H           1.320520    1.595643   -0.985194 H         1 <1>         0.062305 
     46 H           2.475734    2.101766    1.819938 H         1 <1>         0.062512 
     47 H           1.063450    4.093499    1.986762 H         1 <1>         0.030620 
     48 H           0.540371    3.877017    0.285244 H         1 <1>         0.030620 
     49 H          -0.107335    2.023667    2.666747 H         1 <1>         0.046548 
     50 H          -1.223798    2.754819    1.433859 H         1 <1>         0.046548 
     51 H           2.391167   -2.726014    0.497692 H         1 <1>         0.059670 
     52 H           0.896186   -0.379569   -2.297741 H         1 <1>         0.046464 
     53 H           2.607532    0.072424   -2.618539 H         1 <1>         0.046464 
     54 H           0.862128   -3.069173   -1.370747 H         1 <1>         0.028833 
     55 H           2.262832   -4.078095   -1.839894 H         1 <1>         0.028833 
     56 H           3.188970   -2.179954   -3.174205 H         1 <1>         0.028105 
     57 H           1.467525   -2.275536   -3.657422 H         1 <1>         0.028105 
     58 H          -2.174529    0.753608    1.992477 H         1 <1>         0.059718 
     59 H          -0.967336   -0.884256    3.160982 H         1 <1>         0.032060 
     60 H          -2.967201   -1.233374   -0.103718 H         1 <1>         0.149508 
     61 H          -0.024796   -2.274294    1.394606 H         1 <1>         0.026590 
     62 H          -1.626609   -2.914402    0.939574 H         1 <1>         0.026590 
     63 H          -3.492396   -0.677586    3.504833 H         1 <1>         0.023311 
     64 H          -2.846180   -2.251001    3.998447 H         1 <1>         0.023311 
     65 H          -3.712655   -2.094717    2.441991 H         1 <1>         0.023311 
     66 H          -5.294839   -1.101514   -0.658672 H         1 <1>         0.056095 
     67 H          -5.927905    0.431931   -2.494290 H         1 <1>         0.031782 
     68 H           4.609162   -0.775364   -0.165683 H         1 <1>         0.154295 
     69 H          -0.284489   -3.336753    3.685633 H         1 <1>         0.022987 
     70 H          -1.761490   -4.154941    3.083694 H         1 <1>         0.022987 
     71 H          -0.191618   -4.486641    2.321930 H         1 <1>         0.022987 
     72 H          -2.921035    0.665496   -1.907781 H         1 <1>         0.026581 
     73 H          -3.746844   -0.762498   -2.587514 H         1 <1>         0.026581 
     74 H           4.987328    2.871966    1.929126 H         1 <1>         0.066936 
     75 H           3.840501    2.365962   -2.262740 H         1 <1>         0.064348 
     76 H          -5.345367    2.805259   -2.548466 H         1 <1>         0.023302 
     77 H          -4.297415    2.658458   -1.112810 H         1 <1>         0.023302 
     78 H          -6.066367    2.539639   -0.949177 H         1 <1>         0.023302 
     79 H           6.940454   -2.568892   -0.807982 H         1 <1>         0.078218 
     80 H           5.731093    0.778957   -2.600870 H         1 <1>         0.062503 
     81 H          -7.683848   -0.083500    2.044485 H         1 <1>         0.039072 
     82 H          -6.945727   -1.548694    1.330976 H         1 <1>         0.039072 
     83 H          -5.944885   -0.337692    2.174629 H         1 <1>         0.039072 
     84 H          -7.854347   -0.838100   -1.178581 H         1 <1>         0.039072 
     85 H          -8.775152    0.185981   -0.048545 H         1 <1>         0.039072 
     86 H          -7.903959    0.941234   -1.375269 H         1 <1>         0.039072 
     87 H          -3.547099    2.015434   -3.911426 H         1 <1>         0.022987 
     88 H          -2.738314    0.514084   -4.416976 H         1 <1>         0.022987 
     89 H          -4.512855    0.651198   -4.553056 H         1 <1>         0.022987 
     90 H           8.239740   -0.456578   -0.669598 H         1 <1>         0.063668 
     91 H           8.807171    1.799443    2.806202 H         1 <1>         0.052870 
     92 H           7.740862    3.109054    2.219161 H         1 <1>         0.052870 
     93 H           8.767362    2.198322    1.061724 H         1 <1>         0.052870 
@<TRIPOS>BOND
     1    1   13 1    
     2   28    1 1    
     3   16    2 2    
     4   21    3 2    
     5   24    4 2    
     6   29    5 2    
     7   37    6 1    
     8    6   44 1    
     9   12    7 1    
    10   15    7 1    
    11    7   21 1    
    12   16    8 1    
    13    8   17 1    
    14    8   18 1    
    15   22    9 1    
    16    9   29 1    
    17    9   60 1    
    18   24   10 1    
    19   10   36 1    
    20   10   68 1    
    21   27   11 1    
    22   11   40 1    
    23   11   41 1    
    24   13   12 1    
    25   12   16 1    
    26   12   45 1    
    27   13   14 1    
    28   13   46 1    
    29   14   15 1    
    30   14   47 1    
    31   14   48 1    
    32   15   49 1    
    33   15   50 1    
    34   17   19 1    
    35   17   24 1    
    36   17   51 1    
    37   18   20 1    
    38   18   52 1    
    39   18   53 1    
    40   20   19 1    
    41   19   54 1    
    42   19   55 1    
    43   20   56 1    
    44   20   57 1    
    45   21   22 1    
    46   22   23 1    
    47   22   58 1    
    48   23   25 1    
    49   23   26 1    
    50   23   59 1    
    51   25   31 1    
    52   25   61 1    
    53   25   62 1    
    54   26   63 1    
    55   26   64 1    
    56   26   65 1    
    57   29   27 1    
    58   27   30 1    
    59   27   66 1    
    60   33   28 2    
    61   28   34 1    
    62   30   32 1    
    63   30   35 1    
    64   30   67 1    
    65   31   69 1    
    66   31   70 1    
    67   31   71 1    
    68   32   43 1    
    69   32   72 1    
    70   32   73 1    
    71   33   37 1    
    72   33   74 1    
    73   34   39 2    
    74   34   75 1    
    75   35   76 1    
    76   35   77 1    
    77   35   78 1    
    78   36   42 2    
    79   36   79 1    
    80   37   38 2    
    81   38   39 1    
    82   38   42 1    
    83   39   80 1    
    84   40   81 1    
    85   40   82 1    
    86   40   83 1    
    87   41   84 1    
    88   41   85 1    
    89   41   86 1    
    90   42   90 1    
    91   43   87 1    
    92   43   88 1    
    93   43   89 1    
    94   44   91 1    
    95   44   92 1    
    96   44   93 1    
@<TRIPOS>SUBSTRUCTURE
     1 ****       11 TEMP              0 ****  ****    0 ROOT 
@<TRIPOS>NORMAL
@<TRIPOS>FF_PBC
FORCE_FIELD_SETUP_FEATURE Force Field Setup information
v1.0  0 0.000000 0.000000 0.000000 0.000000 0.000000 0.000000 NONE 0 0 0 0 1 0 0 0 0 0 0 0 0
