@<TRIPOS>MOLECULE
MOL002914
   33    35     1     1     0
SMALL
GASTEIGER


@<TRIPOS>ATOM
      1 C           1.367785    0.181656    1.401194 C.ar      1 <1>         0.092361 
      2 C           1.274002   -1.132449    1.082858 C.ar      1 <1>         0.077223 
      3 O           0.250648    0.899349    1.837153 O.3       1 <1>        -0.335585 
      4 C           2.669409    0.878631    1.293178 C.ar      1 <1>        -0.001026 
      5 C          -0.068287   -1.813518    1.209347 C.2       1 <1>         0.170906 
      6 C           2.472244   -1.872695    0.611852 C.ar      1 <1>         0.087967 
      7 C          -1.070659    0.419005    1.533436 C.3       1 <1>         0.097240 
      8 C           3.762751    0.225650    0.865411 C.ar      1 <1>         0.077503 
      9 C          -1.184945   -1.081224    1.891168 C.3       1 <1>         0.041565 
     10 O          -0.260881   -2.939140    0.778484 O.2       1 <1>        -0.291783 
     11 C           3.660447   -1.213114    0.505499 C.ar      1 <1>        -0.001314 
     12 O           2.362093   -3.230667    0.285350 O.3       1 <1>        -0.358967 
     13 C          -1.548368    0.704407    0.094935 C.ar      1 <1>        -0.015388 
     14 O           4.975166    0.911976    0.767660 O.3       1 <1>        -0.359667 
     15 C          -2.907607    1.271563   -0.108024 C.ar      1 <1>        -0.023745 
     16 C          -0.752859    0.454409   -1.042378 C.ar      1 <1>        -0.053499 
     17 C          -3.398145    1.544642   -1.388964 C.ar      1 <1>         0.102525 
     18 C          -1.266531    0.727196   -2.405745 C.ar      1 <1>        -0.029068 
     19 C          -2.564033    1.259356   -2.581891 C.ar      1 <1>         0.102203 
     20 O          -4.676123    2.086374   -1.533367 O.3       1 <1>        -0.357268 
     21 O          -3.080861    1.521377   -3.855464 O.3       1 <1>        -0.357275 
     22 H           2.736995    1.927475    1.562439 H         1 <1>         0.066932 
     23 H          -1.723554    0.986884    2.215296 H         1 <1>         0.065572 
     24 H          -2.167046   -1.482353    1.594287 H         1 <1>         0.037400 
     25 H          -1.056091   -1.222539    2.975295 H         1 <1>         0.037400 
     26 H           4.543651   -1.735017    0.157088 H         1 <1>         0.066923 
     27 H           3.159705   -3.651021   -0.016742 H         1 <1>         0.217342 
     28 H           5.698366    0.371292    0.470157 H         1 <1>         0.217316 
     29 H          -3.542274    1.486163    0.744050 H         1 <1>         0.064759 
     30 H           0.247717    0.057801   -0.950318 H         1 <1>         0.062192 
     31 H          -0.636757    0.511450   -3.263528 H         1 <1>         0.064413 
     32 H          -4.877038    2.262050   -2.447808 H         1 <1>         0.217422 
     33 H          -2.512614    1.255650   -4.569997 H         1 <1>         0.217422 
@<TRIPOS>BOND
     1    1    2 2    
     2    1    3 1    
     3    1    4 1    
     4    2    5 1    
     5    2    6 1    
     6    3    7 1    
     7    4    8 2    
     8    4   22 1    
     9    5    9 1    
    10    5   10 2    
    11    6   11 2    
    12    6   12 1    
    13    7    9 1    
    14    7   13 1    
    15    7   23 1    
    16    8   11 1    
    17    8   14 1    
    18    9   24 1    
    19    9   25 1    
    20   11   26 1    
    21   12   27 1    
    22   13   15 1    
    23   13   16 2    
    24   14   28 1    
    25   15   17 2    
    26   15   29 1    
    27   16   18 1    
    28   16   30 1    
    29   17   19 1    
    30   17   20 1    
    31   18   19 2    
    32   18   31 1    
    33   19   21 1    
    34   20   32 1    
    35   21   33 1    
@<TRIPOS>SUBSTRUCTURE
     1 ****        1 TEMP              0 ****  ****    0 ROOT 
@<TRIPOS>NORMAL
@<TRIPOS>FF_PBC
FORCE_FIELD_SETUP_FEATURE Force Field Setup information
v1.0  0 0.000000 0.000000 0.000000 0.000000 0.000000 0.000000 NONE 0 0 0 0 1 0 0 0 0 0 0 0 0
