@<TRIPOS>MOLECULE
MOL002675
   17    16     1     1     0
SMALL
GASTEIGER


@<TRIPOS>ATOM
      1 O          -4.361127    0.353086   -0.412471 O.2       1 <1>        -0.296330 
      2 C           1.371410    0.482185    0.265497 C.3       1 <1>        -0.052459 
      3 C           0.381023   -0.624083   -0.184197 C.3       1 <1>        -0.034622 
      4 C           2.783063    0.257273   -0.336236 C.3       1 <1>        -0.064998 
      5 C          -0.979732   -0.379578    0.426423 C.2       1 <1>        -0.080999 
      6 C          -2.076497   -0.119365   -0.298083 C.2       1 <1>        -0.026368 
      7 C          -3.401413    0.119109    0.303828 C.2       1 <1>         0.142804 
      8 H           0.989531    1.464924   -0.058856 H         1 <1>         0.026558 
      9 H           1.445174    0.487090    1.366019 H         1 <1>         0.026558 
     10 H           0.742562   -1.609076    0.152232 H         1 <1>         0.030734 
     11 H           0.331069   -0.640286   -1.284958 H         1 <1>         0.030734 
     12 H           3.187610   -0.714559   -0.012999 H         1 <1>         0.022987 
     13 H           2.739979    0.274271   -1.436497 H         1 <1>         0.022987 
     14 H           3.468700    1.051421   -0.000660 H         1 <1>         0.022987 
     15 H          -1.054992   -0.419234    1.514192 H         1 <1>         0.057298 
     16 H          -2.019366   -0.074421   -1.385808 H         1 <1>         0.064624 
     17 H          -3.547696    0.091641    1.383273 H         1 <1>         0.107505 
@<TRIPOS>BOND
     1    7    1 2    
     2    3    2 1    
     3    2    4 1    
     4    2    8 1    
     5    2    9 1    
     6    5    3 1    
     7    3   10 1    
     8    3   11 1    
     9    4   12 1    
    10    4   13 1    
    11    4   14 1    
    12    6    5 2    
    13    5   15 1    
    14    6    7 1    
    15    6   16 1    
    16    7   17 1    
@<TRIPOS>SUBSTRUCTURE
     1 ****        2 TEMP              0 ****  ****    0 ROOT 
@<TRIPOS>NORMAL
@<TRIPOS>FF_PBC
FORCE_FIELD_SETUP_FEATURE Force Field Setup information
v1.0  0 0.000000 0.000000 0.000000 0.000000 0.000000 0.000000 NONE 0 0 0 0 1 0 0 0 0 0 0 0 0
