@<TRIPOS>MOLECULE
MOL001921
   59    64     1     1     0
SMALL
GASTEIGER


@<TRIPOS>ATOM
      1 O           0.332302    1.018011   -1.771216 O.3       1 <1>        -0.358754 
      2 O           1.631670   -0.569162    2.390473 O.3       1 <1>        -0.307887 
      3 O          -2.028625   -0.323702   -0.558519 O.3       1 <1>        -0.342451 
      4 O           3.611198   -1.076912   -0.533905 O.3       1 <1>        -0.310257 
      5 O           3.577984    0.331206    1.781791 O.2       1 <1>        -0.264132 
      6 O          -3.381343    0.623348   -2.199298 O.3       1 <1>        -0.340512 
      7 O          -0.542439    2.365004   -4.415118 O.3       1 <1>        -0.386392 
      8 O          -3.171170    3.540000   -2.175804 O.3       1 <1>        -0.386488 
      9 O           5.542013   -1.892836    0.050393 O.2       1 <1>        -0.259226 
     10 O          -5.708676    0.527614   -3.939987 O.3       1 <1>        -0.392366 
     11 C           0.297123    0.663785   -0.382437 C.3       1 <1>         0.113782 
     12 C           1.763899    0.573496    0.239446 C.3       1 <1>         0.116520 
     13 C           0.907896    1.203718    1.414843 C.3       1 <1>         0.010866 
     14 C          -0.137629    1.827655    0.507942 C.3       1 <1>        -0.013555 
     15 C           0.347799    0.005382    2.221706 C.3       1 <1>         0.082599 
     16 C          -0.666952   -0.536943   -0.115595 C.3       1 <1>         0.094396 
     17 C          -0.677470   -0.857215    1.410290 C.3       1 <1>         0.006101 
     18 C           2.410924    0.085611    1.526135 C.2       1 <1>         0.274388 
     19 C           2.197121   -0.860518   -0.285435 C.3       1 <1>         0.075172 
     20 C          -0.209611    0.425662    3.606693 C.3       1 <1>        -0.034845 
     21 C          -0.968819    1.043883   -2.385915 C.3       1 <1>         0.138408 
     22 C          -2.174225    0.808416   -1.440160 C.3       1 <1>         0.188621 
     23 C          -1.142284    2.415808   -3.107867 C.3       1 <1>         0.114350 
     24 C          -2.648800    2.770864   -3.280044 C.3       1 <1>         0.111905 
     25 C          -3.467562    1.449637   -3.384317 C.3       1 <1>         0.113005 
     26 C           4.367156   -1.768031    0.359529 C.2       1 <1>         0.293839 
     27 C          -4.970931    1.731485   -3.640085 C.3       1 <1>         0.073015 
     28 C           3.939844   -2.401445    1.665162 C.ar      1 <1>         0.046475 
     29 C           2.904630   -3.468153    1.732074 C.ar      1 <1>        -0.048875 
     30 C           4.556236   -1.979966    2.872126 C.ar      1 <1>        -0.048875 
     31 C           2.489732   -3.992586    2.972221 C.ar      1 <1>        -0.061020 
     32 C           4.125392   -2.538953    4.180317 C.ar      1 <1>        -0.061020 
     33 C           3.104962   -3.501583    4.230671 C.ar      1 <1>        -0.061719 
     34 H           1.308796    2.057872    2.013315 H         1 <1>         0.034149 
     35 H          -1.120539    1.864896    0.999234 H         1 <1>         0.029797 
     36 H           0.154866    2.802203    0.081040 H         1 <1>         0.029797 
     37 H          -0.379821   -1.404358   -0.735829 H         1 <1>         0.062692 
     38 H          -1.687482   -0.617349    1.785764 H         1 <1>         0.031911 
     39 H          -0.513664   -1.928719    1.611437 H         1 <1>         0.031911 
     40 H           1.951023   -0.851734   -1.360079 H         1 <1>         0.057758 
     41 H           1.676463   -1.745598    0.123304 H         1 <1>         0.057758 
     42 H          -1.106998    1.051720    3.483739 H         1 <1>         0.025756 
     43 H          -0.465781   -0.474707    4.186972 H         1 <1>         0.025756 
     44 H           0.549640    0.999703    4.159902 H         1 <1>         0.025756 
     45 H          -0.959595    0.217794   -3.117384 H         1 <1>         0.067399 
     46 H          -2.358932    1.698495   -0.820480 H         1 <1>         0.093760 
     47 H          -0.670656    3.219354   -2.513498 H         1 <1>         0.064767 
     48 H          -2.767428    3.361770   -4.210815 H         1 <1>         0.064673 
     49 H          -3.076085    0.877665   -4.242277 H         1 <1>         0.064668 
     50 H           0.391860    2.181882   -4.388263 H         1 <1>         0.210005 
     51 H          -5.402126    2.246447   -2.759942 H         1 <1>         0.058370 
     52 H          -5.051613    2.388538   -4.515701 H         1 <1>         0.058370 
     53 H          -2.775777    4.402615   -2.099431 H         1 <1>         0.210004 
     54 H          -5.715220   -0.085790   -3.211392 H         1 <1>         0.209508 
     55 H           2.475802   -3.859225    0.818838 H         1 <1>         0.062527 
     56 H           5.341003   -1.231399    2.854338 H         1 <1>         0.062527 
     57 H           1.735713   -4.772619    3.017072 H         1 <1>         0.061778 
     58 H           4.600953   -2.195878    5.092864 H         1 <1>         0.061778 
     59 H           2.772736   -3.898588    5.190172 H         1 <1>         0.061759 
@<TRIPOS>BOND
     1    1   11 1    
     2   21    1 1    
     3   15    2 1    
     4   18    2 1    
     5    3   16 1    
     6   22    3 1    
     7   19    4 1    
     8    4   26 1    
     9   18    5 2    
    10    6   22 1    
    11   25    6 1    
    12   23    7 1    
    13    7   50 1    
    14   24    8 1    
    15    8   53 1    
    16   26    9 2    
    17   27   10 1    
    18   10   54 1    
    19   11   12 1    
    20   11   14 1    
    21   16   11 1    
    22   12   13 1    
    23   12   18 1    
    24   12   19 1    
    25   14   13 1    
    26   15   13 1    
    27   13   34 1    
    28   14   35 1    
    29   14   36 1    
    30   17   15 1    
    31   15   20 1    
    32   16   17 1    
    33   16   37 1    
    34   17   38 1    
    35   17   39 1    
    36   19   40 1    
    37   19   41 1    
    38   20   42 1    
    39   20   43 1    
    40   20   44 1    
    41   22   21 1    
    42   23   21 1    
    43   21   45 1    
    44   22   46 1    
    45   24   23 1    
    46   23   47 1    
    47   25   24 1    
    48   24   48 1    
    49   25   27 1    
    50   25   49 1    
    51   26   28 1    
    52   27   51 1    
    53   27   52 1    
    54   28   29 1    
    55   28   30 2    
    56   29   31 2    
    57   29   55 1    
    58   30   32 1    
    59   30   56 1    
    60   31   33 1    
    61   31   57 1    
    62   32   33 2    
    63   32   58 1    
    64   33   59 1    
@<TRIPOS>SUBSTRUCTURE
     1 ****        1 TEMP              0 ****  ****    0 ROOT 
@<TRIPOS>NORMAL
@<TRIPOS>FF_PBC
FORCE_FIELD_SETUP_FEATURE Force Field Setup information
v1.0  0 0.000000 0.000000 0.000000 0.000000 0.000000 0.000000 NONE 0 0 0 0 1 0 0 0 0 0 0 0 0
