@<TRIPOS>MOLECULE
MOL006240
   31    32     1     1     0
SMALL
GASTEIGER


@<TRIPOS>ATOM
      1 O           1.132825   -0.477135   -0.628782 O.3       1 <1>        -0.350164 
      2 O           3.261771    2.041538   -0.103568 O.3       1 <1>        -0.389006 
      3 O           3.131737   -2.617176   -0.754966 O.3       1 <1>        -0.392368 
      4 O          -1.204327    2.885601   -0.426787 O.2       1 <1>        -0.251787 
      5 O          -4.904323    0.429725   -0.010989 O.2       1 <1>        -0.270051 
      6 N          -0.993896    0.653707   -0.360644 N.am      1 <1>        -0.234742 
      7 N          -3.070351    1.701492   -0.216388 N.am      1 <1>        -0.235917 
      8 C           2.597215    0.955454    0.572731 C.3       1 <1>         0.087442 
      9 C           0.458481    0.779408   -0.492895 C.3       1 <1>         0.135351 
     10 C           1.105717    1.288840    0.808426 C.3       1 <1>         0.019342 
     11 C           2.534617   -0.272270   -0.380976 C.3       1 <1>         0.109824 
     12 C           3.150334   -1.558700    0.221912 C.3       1 <1>         0.072901 
     13 C          -1.556212   -0.577819   -0.254498 C.2       1 <1>         0.011075 
     14 C          -1.732643    1.789126   -0.338121 C.2       1 <1>         0.314551 
     15 C          -2.882078   -0.715524   -0.137373 C.2       1 <1>         0.025798 
     16 C          -3.691378    0.513545   -0.117531 C.2       1 <1>         0.248381 
     17 C          -3.560506   -2.061941   -0.026797 C.3       1 <1>        -0.033577 
     18 H           3.115102    0.736281    1.523009 H         1 <1>         0.062116 
     19 H           0.723520    1.425298   -1.350058 H         1 <1>         0.081407 
     20 H           0.707271    0.689199    1.643666 H         1 <1>         0.033251 
     21 H           0.919764    2.355295    1.007447 H         1 <1>         0.033251 
     22 H           3.037278   -0.041059   -1.334580 H         1 <1>         0.064554 
     23 H           2.560512   -1.842013    1.108865 H         1 <1>         0.058369 
     24 H           4.188429   -1.351618    0.529391 H         1 <1>         0.058369 
     25 H          -0.948408   -1.482500   -0.263758 H         1 <1>         0.078979 
     26 H           3.288833    2.844074    0.409459 H         1 <1>         0.209892 
     27 H          -3.617208    2.538971   -0.200782 H         1 <1>         0.159395 
     28 H           3.484856   -3.438470   -0.425196 H         1 <1>         0.209508 
     29 H          -4.195551   -2.079747    0.871115 H         1 <1>         0.027952 
     30 H          -2.843801   -2.893926    0.039005 H         1 <1>         0.027952 
     31 H          -4.196782   -2.218456   -0.910739 H         1 <1>         0.027952 
@<TRIPOS>BOND
     1    1    9 1    
     2   11    1 1    
     3    8    2 1    
     4    2   26 1    
     5   12    3 1    
     6    3   28 1    
     7   14    4 2    
     8   16    5 2    
     9    9    6 1    
    10    6   13 1    
    11    6   14 1    
    12   14    7 1    
    13    7   16 1    
    14    7   27 1    
    15    8   10 1    
    16   11    8 1    
    17    8   18 1    
    18   10    9 1    
    19    9   19 1    
    20   10   20 1    
    21   10   21 1    
    22   11   12 1    
    23   11   22 1    
    24   12   23 1    
    25   12   24 1    
    26   13   15 2    
    27   13   25 1    
    28   15   16 1    
    29   15   17 1    
    30   17   29 1    
    31   17   30 1    
    32   17   31 1    
@<TRIPOS>SUBSTRUCTURE
     1 ****        2 TEMP              0 ****  ****    0 ROOT 
@<TRIPOS>NORMAL
@<TRIPOS>FF_PBC
FORCE_FIELD_SETUP_FEATURE Force Field Setup information
v1.0  0 0.000000 0.000000 0.000000 0.000000 0.000000 0.000000 NONE 0 0 0 0 1 0 0 0 0 0 0 0 0
