@<TRIPOS>MOLECULE
MOL005296
   41    40     1     1     0
SMALL
GASTEIGER


@<TRIPOS>ATOM
      1 C          -1.256854   -3.042779    0.205563 C.3       1 <1>        -0.043888 
      2 C          -0.053393   -2.174030   -0.279116 C.3       1 <1>        -0.050459 
      3 C          -0.118118   -0.684462    0.162997 C.3       1 <1>        -0.052815 
      4 C           1.205272    0.061792   -0.165144 C.3       1 <1>        -0.053048 
      5 C          -2.619918   -2.483151   -0.308305 C.3       1 <1>        -0.050708 
      6 C           1.131720    1.557398    0.248853 C.3       1 <1>        -0.053057 
      7 C           2.459872    2.298562   -0.066876 C.3       1 <1>        -0.053065 
      8 C          -1.030469   -4.516006   -0.242839 C.3       1 <1>        -0.062415 
      9 C          -3.846966   -3.366079    0.055528 C.3       1 <1>        -0.055669 
     10 C           2.381997    3.796482    0.336819 C.3       1 <1>        -0.053306 
     11 C           3.712824    4.535374    0.028670 C.3       1 <1>        -0.055911 
     12 C          -5.180736   -2.656874   -0.300146 C.3       1 <1>        -0.065268 
     13 C           3.631445    6.032695    0.424569 C.3       1 <1>        -0.065276 
     14 H          -1.268430   -3.027550    1.309716 H         1 <1>         0.029813 
     15 H           0.872848   -2.606117    0.134410 H         1 <1>         0.026785 
     16 H           0.014458   -2.220389   -1.378275 H         1 <1>         0.026785 
     17 H          -0.936973   -0.168246   -0.362321 H         1 <1>         0.026537 
     18 H          -0.306609   -0.631451    1.247763 H         1 <1>         0.026537 
     19 H           2.040529   -0.419270    0.370087 H         1 <1>         0.026529 
     20 H           1.403331   -0.007813   -1.247599 H         1 <1>         0.026529 
     21 H          -2.792020   -1.495554    0.146673 H         1 <1>         0.026777 
     22 H          -2.579104   -2.357428   -1.402344 H         1 <1>         0.026777 
     23 H           0.305148    2.045875   -0.293039 H         1 <1>         0.026528 
     24 H           0.924433    1.626504    1.329475 H         1 <1>         0.026528 
     25 H           3.285627    1.815968    0.481508 H         1 <1>         0.026528 
     26 H           2.671682    2.223268   -1.146196 H         1 <1>         0.026528 
     27 H          -1.752816   -5.196335    0.232031 H         1 <1>         0.023242 
     28 H          -0.025571   -4.862031    0.044782 H         1 <1>         0.023242 
     29 H          -1.127273   -4.600037   -1.336160 H         1 <1>         0.023242 
     30 H          -3.814927   -4.315427   -0.503149 H         1 <1>         0.026273 
     31 H          -3.834956   -3.591778    1.134810 H         1 <1>         0.026273 
     32 H           1.560667    4.280863   -0.216622 H         1 <1>         0.026520 
     33 H           2.164794    3.873657    1.414929 H         1 <1>         0.026520 
     34 H           4.536844    4.059613    0.586277 H         1 <1>         0.026265 
     35 H           3.936580    4.459665   -1.048537 H         1 <1>         0.026265 
     36 H          -5.286642   -1.720524    0.269658 H         1 <1>         0.022978 
     37 H          -6.034272   -3.309587   -0.056932 H         1 <1>         0.022978 
     38 H          -5.214700   -2.421884   -1.375541 H         1 <1>         0.022978 
     39 H           3.427876    6.135000    1.501915 H         1 <1>         0.022978 
     40 H           2.828218    6.535387   -0.136389 H         1 <1>         0.022978 
     41 H           4.584484    6.536900    0.198899 H         1 <1>         0.022978 
@<TRIPOS>BOND
     1    1    2 1    
     2    1    5 1    
     3    1    8 1    
     4    1   14 1    
     5    2    3 1    
     6    2   15 1    
     7    2   16 1    
     8    3    4 1    
     9    3   17 1    
    10    3   18 1    
    11    4    6 1    
    12    4   19 1    
    13    4   20 1    
    14    5    9 1    
    15    5   21 1    
    16    5   22 1    
    17    6    7 1    
    18    6   23 1    
    19    6   24 1    
    20    7   10 1    
    21    7   25 1    
    22    7   26 1    
    23    8   27 1    
    24    8   28 1    
    25    8   29 1    
    26    9   12 1    
    27    9   30 1    
    28    9   31 1    
    29   10   11 1    
    30   10   32 1    
    31   10   33 1    
    32   11   13 1    
    33   11   34 1    
    34   11   35 1    
    35   12   36 1    
    36   12   37 1    
    37   12   38 1    
    38   13   39 1    
    39   13   40 1    
    40   13   41 1    
@<TRIPOS>SUBSTRUCTURE
     1 ****        1 TEMP              0 ****  ****    0 ROOT 
@<TRIPOS>NORMAL
@<TRIPOS>FF_PBC
FORCE_FIELD_SETUP_FEATURE Force Field Setup information
v1.0  0 0.000000 0.000000 0.000000 0.000000 0.000000 0.000000 NONE 0 0 0 0 1 0 0 0 0 0 0 0 0
