@<TRIPOS>MOLECULE
MOL004983
   24    25     1     1     0
SMALL
GASTEIGER


@<TRIPOS>ATOM
      1 N           0.807657   -2.225906    0.215613 N.ar      1 <1>        -0.259597 
      2 C          -0.340572   -2.898488   -0.022819 C.ar      1 <1>         0.028131 
      3 C          -1.590892   -2.160920   -0.307988 C.ar      1 <1>        -0.040401 
      4 C          -1.564501   -0.766523   -0.330098 C.ar      1 <1>        -0.044148 
      5 C          -0.272973   -0.080532   -0.056733 C.ar      1 <1>        -0.023167 
      6 C          -0.205526    1.453502   -0.074377 C.3       1 <1>        -0.025725 
      7 C           1.071904    2.004421    0.607129 C.3       1 <1>        -0.048654 
      8 C           2.309503    1.251212    0.065400 C.3       1 <1>        -0.047336 
      9 C           2.233973   -0.228862    0.511073 C.3       1 <1>        -0.010126 
     10 C           0.874389   -0.863596    0.211274 C.ar      1 <1>         0.044686 
     11 C          -2.842526    0.026844   -0.632536 C.3       1 <1>        -0.039349 
     12 H          -0.339784   -3.983003   -0.004595 H         1 <1>         0.082952 
     13 H          -2.507828   -2.709213   -0.496221 H         1 <1>         0.063537 
     14 H          -1.085867    1.882857    0.429801 H         1 <1>         0.031381 
     15 H          -0.219262    1.764892   -1.131247 H         1 <1>         0.031381 
     16 H           1.005137    1.867558    1.699336 H         1 <1>         0.026850 
     17 H           1.165417    3.084252    0.401739 H         1 <1>         0.026850 
     18 H           2.332421    1.312886   -1.035053 H         1 <1>         0.026896 
     19 H           3.236272    1.704763    0.455189 H         1 <1>         0.026896 
     20 H           3.021159   -0.813770    0.009119 H         1 <1>         0.032827 
     21 H           2.388964   -0.303571    1.598981 H         1 <1>         0.032827 
     22 H          -2.631663    0.819761   -1.364919 H         1 <1>         0.027763 
     23 H          -3.213655    0.478955    0.298615 H         1 <1>         0.027763 
     24 H          -3.632146   -0.617919   -1.046682 H         1 <1>         0.027763 
@<TRIPOS>BOND
     1    1    2 2    
     2    1   10 1    
     3    2    3 1    
     4    2   12 1    
     5    3    4 2    
     6    3   13 1    
     7    4    5 1    
     8    4   11 1    
     9    5    6 1    
    10    5   10 2    
    11    6    7 1    
    12    6   14 1    
    13    6   15 1    
    14    7    8 1    
    15    7   16 1    
    16    7   17 1    
    17    8    9 1    
    18    8   18 1    
    19    8   19 1    
    20    9   10 1    
    21    9   20 1    
    22    9   21 1    
    23   11   22 1    
    24   11   23 1    
    25   11   24 1    
@<TRIPOS>SUBSTRUCTURE
     1 ****        1 TEMP              0 ****  ****    0 ROOT 
@<TRIPOS>NORMAL
@<TRIPOS>FF_PBC
FORCE_FIELD_SETUP_FEATURE Force Field Setup information
v1.0  0 0.000000 0.000000 0.000000 0.000000 0.000000 0.000000 NONE 0 0 0 0 1 0 0 0 0 0 0 0 0
