@<TRIPOS>MOLECULE
MOL002378
   35    34     1     1     0
SMALL
GASTEIGER


@<TRIPOS>ATOM
      1 C          -4.123561   -2.803061   -2.460452 C.3       1 <1>        -0.065276 
      2 C           1.971188    4.290362    2.936336 C.3       1 <1>        -0.065276 
      3 C          -2.817990   -3.636527   -2.366695 C.3       1 <1>        -0.055911 
      4 C          -1.529966   -2.764582   -2.340227 C.3       1 <1>        -0.053306 
      5 C          -1.433937   -1.846211   -1.090220 C.3       1 <1>        -0.053065 
      6 C          -0.071519   -1.100979   -1.039655 C.3       1 <1>        -0.053057 
      7 C           0.018305   -0.166726    0.198347 C.3       1 <1>        -0.053057 
      8 C           1.377154    0.585107    0.243227 C.3       1 <1>        -0.053057 
      9 C           1.464191    1.526773    1.476049 C.3       1 <1>        -0.053065 
     10 C           2.815711    2.293097    1.507836 C.3       1 <1>        -0.053306 
     11 C           3.010081    3.146375    2.793933 C.3       1 <1>        -0.055911 
     12 H          -4.985703   -3.473977   -2.602809 H         1 <1>         0.022978 
     13 H          -4.295082   -2.224786   -1.540512 H         1 <1>         0.022978 
     14 H          -4.076450   -2.109822   -3.314571 H         1 <1>         0.022978 
     15 H           2.236371    4.931364    3.792139 H         1 <1>         0.022978 
     16 H           1.956180    4.911109    2.027148 H         1 <1>         0.022978 
     17 H           0.961101    3.892573    3.113653 H         1 <1>         0.022978 
     18 H          -2.768093   -4.298706   -3.248352 H         1 <1>         0.026265 
     19 H          -2.855358   -4.274065   -1.467668 H         1 <1>         0.026265 
     20 H          -0.659754   -3.442330   -2.346753 H         1 <1>         0.026520 
     21 H          -1.485537   -2.148245   -3.253312 H         1 <1>         0.026520 
     22 H          -2.239456   -1.095794   -1.114084 H         1 <1>         0.026528 
     23 H          -1.550769   -2.455269   -0.178889 H         1 <1>         0.026528 
     24 H           0.747933   -1.837202   -0.997996 H         1 <1>         0.026528 
     25 H           0.048785   -0.502394   -1.957623 H         1 <1>         0.026528 
     26 H          -0.802632    0.568142    0.159698 H         1 <1>         0.026528 
     27 H          -0.097859   -0.765557    1.116722 H         1 <1>         0.026528 
     28 H           2.197016   -0.150799    0.285108 H         1 <1>         0.026528 
     29 H           1.494898    1.180645   -0.677185 H         1 <1>         0.026528 
     30 H           0.628906    2.242474    1.425750 H         1 <1>         0.026528 
     31 H           1.359225    0.931554    2.397861 H         1 <1>         0.026528 
     32 H           3.637746    1.559243    1.458656 H         1 <1>         0.026520 
     33 H           2.890012    2.944101    0.621147 H         1 <1>         0.026520 
     34 H           4.016745    3.597731    2.759525 H         1 <1>         0.026265 
     35 H           2.962021    2.496482    3.683569 H         1 <1>         0.026265 
@<TRIPOS>BOND
     1    3    1 1    
     2    1   12 1    
     3    1   13 1    
     4    1   14 1    
     5   11    2 1    
     6    2   15 1    
     7    2   16 1    
     8    2   17 1    
     9    4    3 1    
    10    3   18 1    
    11    3   19 1    
    12    5    4 1    
    13    4   20 1    
    14    4   21 1    
    15    6    5 1    
    16    5   22 1    
    17    5   23 1    
    18    7    6 1    
    19    6   24 1    
    20    6   25 1    
    21    8    7 1    
    22    7   26 1    
    23    7   27 1    
    24    9    8 1    
    25    8   28 1    
    26    8   29 1    
    27   10    9 1    
    28    9   30 1    
    29    9   31 1    
    30   10   11 1    
    31   10   32 1    
    32   10   33 1    
    33   11   34 1    
    34   11   35 1    
@<TRIPOS>SUBSTRUCTURE
     1 ****        1 TEMP              0 ****  ****    0 ROOT 
@<TRIPOS>NORMAL
@<TRIPOS>FF_PBC
FORCE_FIELD_SETUP_FEATURE Force Field Setup information
v1.0  0 0.000000 0.000000 0.000000 0.000000 0.000000 0.000000 NONE 0 0 0 0 1 0 0 0 0 0 0 0 0
