@<TRIPOS>MOLECULE
MOL008165
   31    30     1     1     0
SMALL
GASTEIGER


@<TRIPOS>ATOM
      1 C          -0.690669    0.574639   -0.000104 C.3       1 <1>        -0.052673 
      2 C           0.589269   -0.305430    0.000113 C.3       1 <1>        -0.053046 
      3 C          -0.336717    2.087122    0.000081 C.3       1 <1>        -0.046385 
      4 C           0.236600   -1.818242   -0.000086 C.3       1 <1>        -0.053065 
      5 C          -1.614752    2.969110   -0.000120 C.3       1 <1>         0.005543 
      6 C           1.517203   -2.697282    0.000136 C.3       1 <1>        -0.053306 
      7 C          -1.296090    4.444927    0.000083 C.2       1 <1>         0.130322 
      8 C           1.165770   -4.210061   -0.000094 C.3       1 <1>        -0.055911 
      9 C          -2.453576    5.409296   -0.000109 C.3       1 <1>        -0.006065 
     10 O          -0.145150    4.851253    0.000404 O.2       1 <1>        -0.297704 
     11 C           2.446232   -5.085144    0.000120 C.3       1 <1>        -0.065276 
     12 H          -1.292971    0.341455   -0.893597 H         1 <1>         0.026539 
     13 H          -1.293344    0.341331    0.893105 H         1 <1>         0.026539 
     14 H           1.191638   -0.071979    0.893519 H         1 <1>         0.026529 
     15 H           1.192024   -0.071842   -0.892993 H         1 <1>         0.026529 
     16 H           0.264394    2.323202    0.893923 H         1 <1>         0.026927 
     17 H           0.264752    2.323331   -0.893484 H         1 <1>         0.026927 
     18 H          -0.365445   -2.052134   -0.893573 H         1 <1>         0.026528 
     19 H          -0.365839   -2.052271    0.893097 H         1 <1>         0.026528 
     20 H          -2.216350    2.741484   -0.894145 H         1 <1>         0.034143 
     21 H          -2.216742    2.741324    0.893601 H         1 <1>         0.034143 
     22 H           2.119595   -2.464263    0.893646 H         1 <1>         0.026520 
     23 H           2.120009   -2.464097   -0.893049 H         1 <1>         0.026520 
     24 H           0.565645   -4.449975   -0.893760 H         1 <1>         0.026265 
     25 H           0.565230   -4.450144    0.893245 H         1 <1>         0.026265 
     26 H          -2.089844    6.448128    0.000039 H         1 <1>         0.030578 
     27 H          -3.071527    5.252419   -0.896618 H         1 <1>         0.030578 
     28 H          -3.071918    5.252301    0.896110 H         1 <1>         0.030578 
     29 H           2.176049   -6.153027   -0.000049 H         1 <1>         0.022978 
     30 H           3.053104   -4.877751    0.895297 H         1 <1>         0.022978 
     31 H           3.053519   -4.877575   -0.894734 H         1 <1>         0.022978 
@<TRIPOS>BOND
     1    1    2 1    
     2    1    3 1    
     3    1   12 1    
     4    1   13 1    
     5    2    4 1    
     6    2   14 1    
     7    2   15 1    
     8    3    5 1    
     9    3   16 1    
    10    3   17 1    
    11    4    6 1    
    12    4   18 1    
    13    4   19 1    
    14    5    7 1    
    15    5   20 1    
    16    5   21 1    
    17    6    8 1    
    18    6   22 1    
    19    6   23 1    
    20    7    9 1    
    21    7   10 2    
    22    8   11 1    
    23    8   24 1    
    24    8   25 1    
    25    9   26 1    
    26    9   27 1    
    27    9   28 1    
    28   11   29 1    
    29   11   30 1    
    30   11   31 1    
@<TRIPOS>SUBSTRUCTURE
     1 ****        1 TEMP              0 ****  ****    0 ROOT 
@<TRIPOS>NORMAL
@<TRIPOS>FF_PBC
FORCE_FIELD_SETUP_FEATURE Force Field Setup information
v1.0  0 0.000000 0.000000 0.000000 0.000000 0.000000 0.000000 NONE 0 0 0 0 1 0 0 0 0 0 0 0 0
