@<TRIPOS>MOLECULE
MOL001312
   48    47     1     1     0
SMALL
GASTEIGER


@<TRIPOS>ATOM
      1 C           9.495528    0.213596    0.000214 C.2       1 <1>         0.259588 
      2 C           8.223599   -0.596924   -0.000271 C.3       1 <1>         0.033006 
      3 C           6.935466    0.271103    0.000174 C.3       1 <1>        -0.044061 
      4 C           5.655312   -0.609069   -0.000062 C.3       1 <1>        -0.052596 
      5 C           4.370572    0.264272    0.000184 C.3       1 <1>        -0.053036 
      6 C           3.087112   -0.611045   -0.000093 C.3       1 <1>        -0.052779 
      7 C           1.805452    0.266812    0.000058 C.3       1 <1>        -0.049616 
      8 C           0.518774   -0.602261   -0.000435 C.3       1 <1>        -0.034761 
      9 C          -0.733345    0.242287   -0.000391 C.2       1 <1>        -0.087932 
     10 C          -1.954886   -0.307051    0.000437 C.2       1 <1>        -0.087932 
     11 C          -3.204881    0.540502    0.000479 C.3       1 <1>        -0.034761 
     12 C          -4.496222   -0.321565   -0.000002 C.3       1 <1>        -0.049616 
     13 C          -5.770693    0.566701    0.000153 C.3       1 <1>        -0.052788 
     14 C          -7.063305   -0.294765   -0.000130 C.3       1 <1>        -0.053297 
     15 C          -8.336196    0.595370    0.000073 C.3       1 <1>        -0.055911 
     16 C          -9.626959   -0.264594   -0.000150 C.3       1 <1>        -0.065276 
     17 O          10.588730   -0.330715    0.001299 O.2       1 <1>        -0.265177 
     18 O           9.362563    1.541965   -0.000634 O.3       1 <1>        -0.331267 
     19 H           8.234899   -1.240757   -0.893590 H         1 <1>         0.036600 
     20 H           8.234826   -1.241660    0.892404 H         1 <1>         0.036600 
     21 H           6.935235    0.916168    0.894502 H         1 <1>         0.027004 
     22 H           6.935082    0.916816   -0.893683 H         1 <1>         0.027004 
     23 H           5.656558   -1.254861   -0.893653 H         1 <1>         0.026540 
     24 H           5.656563   -1.255366    0.893163 H         1 <1>         0.026540 
     25 H           4.370040    0.910284    0.893615 H         1 <1>         0.026529 
     26 H           4.370066    0.910781   -0.892889 H         1 <1>         0.026529 
     27 H           3.086176   -1.256832   -0.893611 H         1 <1>         0.026538 
     28 H           3.086083   -1.257293    0.893092 H         1 <1>         0.026538 
     29 H           1.804260    0.912091    0.894252 H         1 <1>         0.026822 
     30 H           1.804508    0.912697   -0.893695 H         1 <1>         0.026822 
     31 H           0.509865   -1.245967   -0.894756 H         1 <1>         0.030732 
     32 H           0.509630   -1.246639    0.893406 H         1 <1>         0.030732 
     33 H          -0.646207    1.329827   -0.001066 H         1 <1>         0.056896 
     34 H          -2.043676   -1.394345    0.001110 H         1 <1>         0.056896 
     35 H          -3.193468    1.184347    0.894727 H         1 <1>         0.030732 
     36 H          -3.193243    1.185003   -0.893294 H         1 <1>         0.030732 
     37 H          -4.499377   -0.966734   -0.894212 H         1 <1>         0.026822 
     38 H          -4.499620   -0.967331    0.893782 H         1 <1>         0.026822 
     39 H          -5.764166    1.212526    0.893648 H         1 <1>         0.026537 
     40 H          -5.764064    1.212988   -0.892997 H         1 <1>         0.026537 
     41 H          -7.071407   -0.940596   -0.893659 H         1 <1>         0.026520 
     42 H          -7.071474   -0.941068    0.893070 H         1 <1>         0.026520 
     43 H          -8.334655    1.241712    0.893679 H         1 <1>         0.026265 
     44 H          -8.334627    1.242147   -0.893206 H         1 <1>         0.026265 
     45 H         -10.515969    0.385890   -0.000002 H         1 <1>         0.022978 
     46 H          -9.662071   -0.904943   -0.895326 H         1 <1>         0.022978 
     47 H          -9.662096   -0.905369    0.894724 H         1 <1>         0.022978 
     48 H          10.205812    1.981762   -0.000235 H         1 <1>         0.220208 
@<TRIPOS>BOND
     1    1    2 1    
     2    1   17 2    
     3    1   18 1    
     4    2    3 1    
     5    2   19 1    
     6    2   20 1    
     7    3    4 1    
     8    3   21 1    
     9    3   22 1    
    10    4    5 1    
    11    4   23 1    
    12    4   24 1    
    13    5    6 1    
    14    5   25 1    
    15    5   26 1    
    16    6    7 1    
    17    6   27 1    
    18    6   28 1    
    19    7    8 1    
    20    7   29 1    
    21    7   30 1    
    22    8    9 1    
    23    8   31 1    
    24    8   32 1    
    25    9   10 2    
    26    9   33 1    
    27   10   11 1    
    28   10   34 1    
    29   11   12 1    
    30   11   35 1    
    31   11   36 1    
    32   12   13 1    
    33   12   37 1    
    34   12   38 1    
    35   13   14 1    
    36   13   39 1    
    37   13   40 1    
    38   14   15 1    
    39   14   41 1    
    40   14   42 1    
    41   15   16 1    
    42   15   43 1    
    43   15   44 1    
    44   16   45 1    
    45   16   46 1    
    46   16   47 1    
    47   18   48 1    
@<TRIPOS>SUBSTRUCTURE
     1 ****        1 TEMP              0 ****  ****    0 ROOT 
@<TRIPOS>NORMAL
@<TRIPOS>FF_PBC
FORCE_FIELD_SETUP_FEATURE Force Field Setup information
v1.0  0 0.000000 0.000000 0.000000 0.000000 0.000000 0.000000 NONE 0 0 0 0 1 0 0 0 0 0 0 0 0
