@<TRIPOS>MOLECULE
MOL004590
   53    52     1     1     0
SMALL
GASTEIGER


@<TRIPOS>ATOM
      1 C          -0.594071    1.872579   -0.590918 C.3       1 <1>        -0.053057 
      2 C           0.753899    1.109995   -0.716274 C.3       1 <1>        -0.053057 
      3 C          -0.380850    3.411083   -0.639640 C.3       1 <1>        -0.053057 
      4 C           0.541174   -0.427373   -0.649039 C.3       1 <1>        -0.053057 
      5 C          -1.710921    4.218806   -0.655511 C.3       1 <1>        -0.053049 
      6 C           1.888570   -1.192309   -0.758886 C.3       1 <1>        -0.053057 
      7 C          -2.569868    4.022162    0.625439 C.3       1 <1>        -0.052824 
      8 C           1.671563   -2.729048   -0.694360 C.3       1 <1>        -0.053057 
      9 C          -3.786357    4.990330    0.643912 C.3       1 <1>        -0.050709 
     10 C           3.018397   -3.496532   -0.792862 C.3       1 <1>        -0.053057 
     11 C          -4.791954    4.712291    1.802520 C.3       1 <1>        -0.046721 
     12 C           2.798859   -5.033165   -0.732585 C.3       1 <1>        -0.053065 
     13 C           4.145138   -5.802143   -0.826534 C.3       1 <1>        -0.053306 
     14 C          -4.134980    4.853894    3.204331 C.3       1 <1>        -0.062665 
     15 C          -6.004139    5.679773    1.690864 C.3       1 <1>        -0.062665 
     16 C           3.924338   -7.338288   -0.766513 C.3       1 <1>        -0.055911 
     17 C           5.268688   -8.105723   -0.862329 C.3       1 <1>        -0.065276 
     18 H          -1.062784    1.588399    0.364115 H         1 <1>         0.026528 
     19 H          -1.263260    1.569718   -1.412819 H         1 <1>         0.026528 
     20 H           1.234036    1.367820   -1.674634 H         1 <1>         0.026528 
     21 H           1.425117    1.421793    0.100938 H         1 <1>         0.026528 
     22 H           0.179364    3.659593   -1.556812 H         1 <1>         0.026528 
     23 H           0.229477    3.723945    0.223539 H         1 <1>         0.026528 
     24 H           0.054167   -0.687053    0.305354 H         1 <1>         0.026528 
     25 H          -0.123665   -0.738628   -1.471585 H         1 <1>         0.026528 
     26 H          -1.457695    5.288627   -0.747089 H         1 <1>         0.026529 
     27 H          -2.301355    3.934315   -1.542129 H         1 <1>         0.026529 
     28 H           2.379140   -0.932823   -1.711451 H         1 <1>         0.026528 
     29 H           2.551023   -0.882834    0.066225 H         1 <1>         0.026528 
     30 H          -2.947405    2.988835    0.670647 H         1 <1>         0.026537 
     31 H          -1.928953    4.204633    1.501970 H         1 <1>         0.026537 
     32 H           1.174822   -2.987476    0.255356 H         1 <1>         0.026528 
     33 H           1.013941   -3.038798   -1.523265 H         1 <1>         0.026528 
     34 H          -3.422756    6.028362    0.714703 H         1 <1>         0.026777 
     35 H          -4.323619    4.884117   -0.313032 H         1 <1>         0.026777 
     36 H           3.517719   -3.236415   -1.740771 H         1 <1>         0.026528 
     37 H           3.674114   -3.189186    0.038488 H         1 <1>         0.026528 
     38 H          -5.173531    3.680647    1.701447 H         1 <1>         0.029548 
     39 H           2.296825   -5.292679    0.214056 H         1 <1>         0.026528 
     40 H           2.145082   -5.340371   -1.565493 H         1 <1>         0.026528 
     41 H           4.647716   -5.543621   -1.773102 H         1 <1>         0.026520 
     42 H           4.799211   -5.496131    0.006538 H         1 <1>         0.026520 
     43 H          -4.893404    4.746205    3.995250 H         1 <1>         0.023233 
     44 H          -3.374663    4.076575    3.370091 H         1 <1>         0.023233 
     45 H          -3.661674    5.842293    3.307437 H         1 <1>         0.023233 
     46 H          -6.746177    5.464705    2.475673 H         1 <1>         0.023233 
     47 H          -6.500077    5.569939    0.713808 H         1 <1>         0.023233 
     48 H          -5.672858    6.723971    1.800190 H         1 <1>         0.023233 
     49 H           3.425373   -7.602930    0.180771 H         1 <1>         0.026265 
     50 H           3.271650   -7.650390   -1.598934 H         1 <1>         0.026265 
     51 H           5.089388   -9.191687   -0.817350 H         1 <1>         0.022978 
     52 H           5.776663   -7.873891   -1.811479 H         1 <1>         0.022978 
     53 H           5.931564   -7.825614   -0.028769 H         1 <1>         0.022978 
@<TRIPOS>BOND
     1    1    2 1    
     2    1    3 1    
     3    1   18 1    
     4    1   19 1    
     5    2    4 1    
     6    2   20 1    
     7    2   21 1    
     8    3    5 1    
     9    3   22 1    
    10    3   23 1    
    11    4    6 1    
    12    4   24 1    
    13    4   25 1    
    14    5    7 1    
    15    5   26 1    
    16    5   27 1    
    17    6    8 1    
    18    6   28 1    
    19    6   29 1    
    20    7    9 1    
    21    7   30 1    
    22    7   31 1    
    23    8   10 1    
    24    8   32 1    
    25    8   33 1    
    26    9   11 1    
    27    9   34 1    
    28    9   35 1    
    29   10   12 1    
    30   10   36 1    
    31   10   37 1    
    32   11   14 1    
    33   11   15 1    
    34   11   38 1    
    35   12   13 1    
    36   12   39 1    
    37   12   40 1    
    38   13   16 1    
    39   13   41 1    
    40   13   42 1    
    41   14   43 1    
    42   14   44 1    
    43   14   45 1    
    44   15   46 1    
    45   15   47 1    
    46   15   48 1    
    47   16   17 1    
    48   16   49 1    
    49   16   50 1    
    50   17   51 1    
    51   17   52 1    
    52   17   53 1    
@<TRIPOS>SUBSTRUCTURE
     1 ****        1 TEMP              0 ****  ****    0 ROOT 
@<TRIPOS>NORMAL
@<TRIPOS>FF_PBC
FORCE_FIELD_SETUP_FEATURE Force Field Setup information
v1.0  0 0.000000 0.000000 0.000000 0.000000 0.000000 0.000000 NONE 0 0 0 0 1 0 0 0 0 0 0 0 0
