@<TRIPOS>MOLECULE
MOL000627
   45    48     1     1     0
SMALL
GASTEIGER


@<TRIPOS>ATOM
      1 C          -4.106282    0.583691    0.314624 C.ar      1 <1>         0.102762 
      2 C          -2.841234   -0.088649    0.331146 C.ar      1 <1>        -0.024451 
      3 C          -1.564861    0.667764    0.352760 C.ar      1 <1>        -0.024144 
      4 C          -1.604715    2.074410    0.383962 C.ar      1 <1>        -0.038877 
      5 C          -2.908254    2.780000    0.358715 C.ar      1 <1>        -0.025627 
      6 C          -4.131560    2.074352    0.325895 C.ar      1 <1>         0.105678 
      7 C          -0.225558   -0.087860    0.353611 C.3       1 <1>         0.040261 
      8 N           0.962517    0.792202    0.427088 N.3       1 <1>        -0.290546 
      9 C           0.767073    2.042175    1.189813 C.3       1 <1>         0.003799 
     10 C          -0.305062    2.874657    0.452923 C.3       1 <1>        -0.014443 
     11 C          -0.062916   -0.906874   -0.949472 C.3       1 <1>        -0.007483 
     12 C           1.267025   -1.664777   -0.936180 C.ar      1 <1>        -0.038548 
     13 C           2.355730   -1.199691   -0.129591 C.ar      1 <1>         0.002335 
     14 C           2.215458    0.062015    0.725497 C.3       1 <1>         0.027421 
     15 C           1.427823   -2.890955   -1.756670 C.ar      1 <1>        -0.055622 
     16 C           2.621881   -3.610373   -1.733864 C.ar      1 <1>        -0.029121 
     17 C           3.757197   -3.160795   -0.896447 C.ar      1 <1>         0.102766 
     18 C           3.631079   -1.955722   -0.118247 C.ar      1 <1>         0.110047 
     19 O           4.933749   -3.912265   -0.874248 O.3       1 <1>        -0.357262 
     20 O           4.704971   -1.502715    0.650948 O.3       1 <1>        -0.345025 
     21 C           5.696086   -0.775284   -0.096410 C.3       1 <1>         0.043148 
     22 O          -5.295489   -0.154719    0.291774 O.3       1 <1>        -0.357262 
     23 O          -5.320094    2.821250    0.306634 O.3       1 <1>        -0.345341 
     24 C          -6.616889    2.205791    0.332848 C.3       1 <1>         0.043136 
     25 H          -2.810716   -1.171950    0.334652 H         1 <1>         0.064735 
     26 H          -2.933317    3.863800    0.364349 H         1 <1>         0.064693 
     27 H          -0.243294   -0.764010    1.224980 H         1 <1>         0.051551 
     28 H           1.700268    2.627601    1.232362 H         1 <1>         0.042996 
     29 H           0.446756    1.816341    2.220255 H         1 <1>         0.042996 
     30 H          -0.469006    3.824887    0.985658 H         1 <1>         0.032566 
     31 H           0.025305    3.091591   -0.575050 H         1 <1>         0.032566 
     32 H          -0.063122   -0.222041   -1.811179 H         1 <1>         0.033171 
     33 H          -0.885726   -1.626912   -1.068933 H         1 <1>         0.033171 
     34 H           2.246926   -0.231738    1.786406 H         1 <1>         0.047675 
     35 H           3.073646    0.716659    0.514924 H         1 <1>         0.047675 
     36 H           0.608287   -3.232078   -2.381013 H         1 <1>         0.062119 
     37 H           2.730281   -4.508011   -2.333305 H         1 <1>         0.064412 
     38 H           5.469062   -3.700683   -0.116300 H         1 <1>         0.217422 
     39 H           6.487250   -0.461411    0.600316 H         1 <1>         0.052871 
     40 H           6.148648   -1.398880   -0.882623 H         1 <1>         0.052871 
     41 H           5.261897    0.122444   -0.562003 H         1 <1>         0.052871 
     42 H          -5.179816   -1.093218    0.197144 H         1 <1>         0.217422 
     43 H          -7.367857    3.009421    0.337711 H         1 <1>         0.052871 
     44 H          -6.780922    1.589089   -0.563675 H         1 <1>         0.052871 
     45 H          -6.750432    1.604174    1.244806 H         1 <1>         0.052871 
@<TRIPOS>BOND
     1    1    2 2    
     2    1    6 1    
     3    1   22 1    
     4    2    3 1    
     5    2   25 1    
     6    3    4 2    
     7    3    7 1    
     8    4    5 1    
     9    4   10 1    
    10    5    6 2    
    11    5   26 1    
    12    6   23 1    
    13    7    8 1    
    14    7   11 1    
    15    7   27 1    
    16    8    9 1    
    17    8   14 1    
    18    9   10 1    
    19    9   28 1    
    20    9   29 1    
    21   10   30 1    
    22   10   31 1    
    23   11   12 1    
    24   11   32 1    
    25   11   33 1    
    26   12   13 2    
    27   12   15 1    
    28   13   14 1    
    29   13   18 1    
    30   14   34 1    
    31   14   35 1    
    32   15   16 2    
    33   15   36 1    
    34   16   17 1    
    35   16   37 1    
    36   17   18 2    
    37   17   19 1    
    38   18   20 1    
    39   19   38 1    
    40   20   21 1    
    41   21   39 1    
    42   21   40 1    
    43   21   41 1    
    44   22   42 1    
    45   23   24 1    
    46   24   43 1    
    47   24   44 1    
    48   24   45 1    
@<TRIPOS>SUBSTRUCTURE
     1 ****        1 TEMP              0 ****  ****    0 ROOT 
@<TRIPOS>NORMAL
@<TRIPOS>FF_PBC
FORCE_FIELD_SETUP_FEATURE Force Field Setup information
v1.0  0 0.000000 0.000000 0.000000 0.000000 0.000000 0.000000 NONE 0 0 0 0 1 0 0 0 0 0 0 0 0
