@<TRIPOS>MOLECULE
MOL000200
   26    26     1     1     0
SMALL
GASTEIGER


@<TRIPOS>ATOM
      1 C          -0.153756   -0.252752    0.410093 C.3       1 <1>        -0.016836 
      2 C          -0.533069   -1.728095    0.773072 C.3       1 <1>        -0.040163 
      3 C          -0.919715    0.280541   -0.835252 C.3       1 <1>        -0.027698 
      4 C           1.333099   -0.084538    0.177314 C.2       1 <1>        -0.080141 
      5 C          -2.068204   -1.984373    0.721301 C.3       1 <1>        -0.062124 
      6 C          -0.023897   -2.115310    2.194521 C.3       1 <1>        -0.062124 
      7 C          -0.374101    1.593690   -1.338255 C.2       1 <1>        -0.080539 
      8 C           1.815047    0.921718   -0.561121 C.2       1 <1>        -0.062781 
      9 C           0.923662    1.896804   -1.212986 C.2       1 <1>        -0.054629 
     10 C           1.501600    3.193391   -1.728088 C.3       1 <1>        -0.040014 
     11 H          -0.415115    0.396570    1.262020 H         1 <1>         0.034849 
     12 H          -0.057483   -2.398054    0.035342 H         1 <1>         0.030119 
     13 H          -0.845238   -0.443510   -1.661708 H         1 <1>         0.031322 
     14 H          -1.982803    0.429628   -0.586508 H         1 <1>         0.031322 
     15 H           2.056238   -0.769979    0.617148 H         1 <1>         0.057507 
     16 H          -2.304445   -3.000067    1.074948 H         1 <1>         0.023251 
     17 H          -2.459276   -1.903956   -0.303971 H         1 <1>         0.023251 
     18 H          -2.596328   -1.262613    1.363296 H         1 <1>         0.023251 
     19 H          -0.268794   -3.165671    2.416927 H         1 <1>         0.023251 
     20 H           1.064325   -2.006925    2.296289 H         1 <1>         0.023251 
     21 H          -0.504743   -1.481603    2.955532 H         1 <1>         0.023251 
     22 H          -1.060399    2.288840   -1.824121 H         1 <1>         0.057482 
     23 H           2.892431    1.036423   -0.689311 H         1 <1>         0.061709 
     24 H           0.768339    3.794149   -2.287286 H         1 <1>         0.027744 
     25 H           2.350624    2.978429   -2.394279 H         1 <1>         0.027744 
     26 H           1.861998    3.787465   -0.875118 H         1 <1>         0.027744 
@<TRIPOS>BOND
     1    1    2 1    
     2    1    3 1    
     3    1    4 1    
     4    1   11 1    
     5    2    5 1    
     6    2    6 1    
     7    2   12 1    
     8    3    7 1    
     9    3   13 1    
    10    3   14 1    
    11    4    8 2    
    12    4   15 1    
    13    5   16 1    
    14    5   17 1    
    15    5   18 1    
    16    6   19 1    
    17    6   20 1    
    18    6   21 1    
    19    7    9 2    
    20    7   22 1    
    21    8    9 1    
    22    8   23 1    
    23    9   10 1    
    24   10   24 1    
    25   10   25 1    
    26   10   26 1    
@<TRIPOS>SUBSTRUCTURE
     1 ****        1 TEMP              0 ****  ****    0 ROOT 
@<TRIPOS>NORMAL
@<TRIPOS>FF_PBC
FORCE_FIELD_SETUP_FEATURE Force Field Setup information
v1.0  0 0.000000 0.000000 0.000000 0.000000 0.000000 0.000000 NONE 0 0 0 0 1 0 0 0 0 0 0 0 0
