@<TRIPOS>MOLECULE
MOL001237
   20    20     1     1     0
SMALL
GASTEIGER


@<TRIPOS>ATOM
      1 C           1.388993    1.176876   -0.001410 C.2       1 <1>         0.160364 
      2 C           1.474285    2.688299   -0.002383 C.3       1 <1>        -0.001401 
      3 C           0.121776    0.330712   -0.000080 C.ar      1 <1>         0.020015 
      4 C           0.138265   -1.169073    0.000413 C.ar      1 <1>        -0.039992 
      5 C          -2.396270   -1.195145    0.000122 C.ar      1 <1>        -0.061472 
      6 C          -1.168321    0.961867    0.000656 C.ar      1 <1>        -0.051022 
      7 C          -1.089731   -1.885925    0.000234 C.ar      1 <1>        -0.058174 
      8 C          -2.430382    0.187151    0.000533 C.ar      1 <1>        -0.061081 
      9 C           1.382348   -2.078945    0.001284 C.3       1 <1>        -0.039044 
     10 O           2.484966    0.644908   -0.001539 O.2       1 <1>        -0.292347 
     11 H           0.532566    3.244453   -0.009295 H         1 <1>         0.030932 
     12 H           2.035108    3.000974    0.891526 H         1 <1>         0.030932 
     13 H           2.045795    2.999153   -0.890161 H         1 <1>         0.030932 
     14 H          -3.317537   -1.769413   -0.000207 H         1 <1>         0.061767 
     15 H          -1.280772    2.034729    0.001217 H         1 <1>         0.062458 
     16 H          -1.084904   -2.971624    0.000284 H         1 <1>         0.062039 
     17 H          -3.384257    0.706061    0.000640 H         1 <1>         0.061777 
     18 H           2.360568   -1.593698    0.005205 H         1 <1>         0.027772 
     19 H           1.337158   -2.723463    0.892417 H         1 <1>         0.027772 
     20 H           1.341355   -2.719430   -0.892940 H         1 <1>         0.027772 
@<TRIPOS>BOND
     1    1    2 1    
     2    1    3 1    
     3    1   10 2    
     4    2   11 1    
     5    2   12 1    
     6    2   13 1    
     7    3    4 1    
     8    3    6 2    
     9    4    7 2    
    10    4    9 1    
    11    7    5 1    
    12    5    8 2    
    13    5   14 1    
    14    6    8 1    
    15    6   15 1    
    16    7   16 1    
    17    8   17 1    
    18    9   18 1    
    19    9   19 1    
    20    9   20 1    
@<TRIPOS>SUBSTRUCTURE
     1 ****        1 TEMP              0 ****  ****    0 ROOT 
@<TRIPOS>NORMAL
@<TRIPOS>FF_PBC
FORCE_FIELD_SETUP_FEATURE Force Field Setup information
v1.0  0 0.000000 0.000000 0.000000 0.000000 0.000000 0.000000 NONE 0 0 0 0 1 0 0 0 0 0 0 0 0
