@<TRIPOS>MOLECULE
MOL002095
   30    30     1     1     0
SMALL
GASTEIGER


@<TRIPOS>ATOM
      1 C          -0.605311    0.397301    0.459297 C.ar      1 <1>         0.059304 
      2 C          -0.229757   -0.772108   -0.366803 C.ar      1 <1>         0.059304 
      3 C           0.410664    1.483759    0.727903 C.2       1 <1>         0.294561 
      4 C          -1.932814    0.484568    1.000543 C.ar      1 <1>        -0.048115 
      5 C           1.184472   -0.887714   -0.891548 C.2       1 <1>         0.294561 
      6 C          -1.210552   -1.779714   -0.659494 C.ar      1 <1>        -0.048115 
      7 O           0.399400    2.681316    0.118940 O.3       1 <1>        -0.311691 
      8 O           1.290628    1.254343    1.540932 O.2       1 <1>        -0.259203 
      9 C          -2.925550   -0.574854    0.701478 C.ar      1 <1>        -0.060980 
     10 O           2.100849   -1.721032   -0.372434 O.3       1 <1>        -0.311691 
     11 O           1.507207   -0.181854   -1.830968 O.2       1 <1>        -0.259203 
     12 C          -2.580908   -1.661529   -0.106083 C.ar      1 <1>        -0.060980 
     13 C          -0.594436    2.832574   -0.916263 C.3       1 <1>         0.054573 
     14 C           1.684083   -2.426711    0.814335 C.3       1 <1>         0.054573 
     15 C          -0.425638    4.239675   -1.536735 C.3       1 <1>        -0.040969 
     16 C           2.873297   -3.296770    1.283296 C.3       1 <1>        -0.040969 
     17 H          -2.208835    1.328858    1.625719 H         1 <1>         0.062548 
     18 H          -0.950483   -2.630960   -1.281058 H         1 <1>         0.062548 
     19 H          -3.927797   -0.501602    1.114180 H         1 <1>         0.061779 
     20 H          -3.317939   -2.426977   -0.328243 H         1 <1>         0.061779 
     21 H          -0.453887    2.078744   -1.709084 H         1 <1>         0.056314 
     22 H          -1.615721    2.752397   -0.514138 H         1 <1>         0.056314 
     23 H           1.423405   -1.721146    1.620709 H         1 <1>         0.056314 
     24 H           0.828017   -3.090402    0.617894 H         1 <1>         0.056314 
     25 H          -1.174701    4.411257   -2.324676 H         1 <1>         0.025189 
     26 H          -0.544331    5.011592   -0.761857 H         1 <1>         0.025189 
     27 H           0.578423    4.336754   -1.978576 H         1 <1>         0.025189 
     28 H           2.606131   -3.875206    2.181360 H         1 <1>         0.025189 
     29 H           3.162144   -3.996050    0.483918 H         1 <1>         0.025189 
     30 H           3.738626   -2.657118    1.520230 H         1 <1>         0.025189 
@<TRIPOS>BOND
     1    1    2 1    
     2    1    3 1    
     3    1    4 2    
     4    2    5 1    
     5    2    6 2    
     6    3    7 1    
     7    3    8 2    
     8    4    9 1    
     9    4   17 1    
    10    5   10 1    
    11    5   11 2    
    12    6   12 1    
    13    6   18 1    
    14    7   13 1    
    15    9   12 2    
    16    9   19 1    
    17   10   14 1    
    18   12   20 1    
    19   13   15 1    
    20   13   21 1    
    21   13   22 1    
    22   14   16 1    
    23   14   23 1    
    24   14   24 1    
    25   15   25 1    
    26   15   26 1    
    27   15   27 1    
    28   16   28 1    
    29   16   29 1    
    30   16   30 1    
@<TRIPOS>SUBSTRUCTURE
     1 ****        1 TEMP              0 ****  ****    0 ROOT 
@<TRIPOS>NORMAL
@<TRIPOS>FF_PBC
FORCE_FIELD_SETUP_FEATURE Force Field Setup information
v1.0  0 0.000000 0.000000 0.000000 0.000000 0.000000 0.000000 NONE 0 0 0 0 1 0 0 0 0 0 0 0 0
