@<TRIPOS>MOLECULE
MOL002251
   97    99     1     1     0
SMALL
GASTEIGER


@<TRIPOS>ATOM
      1 C         -10.510003   -3.879179    2.337774 C.3       1 <1>        -0.056003 
      2 C         -10.075166   -5.377249    2.371650 C.3       1 <1>        -0.011121 
      3 C         -10.886163   -6.131293    1.270899 C.3       1 <1>        -0.043979 
      4 C         -10.339269   -7.546716    0.944367 C.3       1 <1>        -0.049377 
      5 C          -8.861792   -7.447383    0.484957 C.3       1 <1>        -0.020045 
      6 C          -7.988123   -6.784418    1.576785 C.3       1 <1>         0.089437 
      7 C          -8.587905   -5.497438    2.079696 C.2       1 <1>        -0.033959 
      8 C         -10.389789   -5.924082    3.794538 C.3       1 <1>        -0.056003 
      9 O          -6.774661   -6.285657    0.978625 O.3       1 <1>        -0.357812 
     10 C          -6.332650   -5.126368    1.712141 C.3       1 <1>         0.099409 
     11 C          -7.638139   -4.569452    2.195004 C.2       1 <1>        -0.049067 
     12 C          -7.588053   -7.770190    2.707875 C.3       1 <1>        -0.031870 
     13 C          -5.679633   -4.132559    0.776767 C.2       1 <1>        -0.040427 
     14 C          -4.526371   -3.516333    1.081439 C.2       1 <1>        -0.060037 
     15 C          -3.865801   -2.521799    0.208603 C.2       1 <1>        -0.061469 
     16 C          -3.093698   -1.498491    0.604933 C.2       1 <1>        -0.058837 
     17 C           1.806619    0.672120    0.857299 C.2       1 <1>        -0.058837 
     18 C           2.971076    1.225283    1.233270 C.2       1 <1>        -0.050445 
     19 C           3.959960    1.599342    0.194184 C.2       1 <1>        -0.058829 
     20 C           4.719007    2.701410    0.271850 C.2       1 <1>        -0.061262 
     21 C           5.691124    3.110504   -0.766333 C.2       1 <1>        -0.058829 
     22 C           6.589950    4.100341   -0.643872 C.2       1 <1>        -0.050437 
     23 C           7.449023    4.440904   -1.802016 C.2       1 <1>        -0.058564 
     24 C           7.873604    5.681910   -2.071828 C.2       1 <1>        -0.057858 
     25 C          -6.415127   -3.860896   -0.516916 C.3       1 <1>        -0.040764 
     26 C           6.743284    4.872153    0.647865 C.3       1 <1>        -0.039709 
     27 C           8.727905    5.991340   -3.236177 C.2       1 <1>        -0.042725 
     28 C          10.147424    6.451559   -2.938968 C.3       1 <1>        -0.009891 
     29 C          11.058832    6.329256   -4.196874 C.3       1 <1>        -0.043582 
     30 C          10.368500    6.911353   -5.450058 C.3       1 <1>        -0.048572 
     31 C           9.080784    6.099826   -5.719466 C.3       1 <1>        -0.031412 
     32 C           8.240740    5.859573   -4.484635 C.2       1 <1>        -0.068933 
     33 C          10.081663    7.926164   -2.435627 C.3       1 <1>        -0.055792 
     34 C          10.770693    5.571953   -1.812675 C.3       1 <1>        -0.055792 
     35 C           3.289359    1.477020    2.691204 C.3       1 <1>        -0.039709 
     36 C           6.810160    5.445791   -4.772959 C.3       1 <1>        -0.043221 
     37 C          -2.745231   -1.111799    1.992726 C.2       1 <1>        -0.050446 
     38 C          -1.536717   -0.612778    2.303745 C.2       1 <1>        -0.058837 
     39 C          -0.402235   -0.361026    1.382991 C.2       1 <1>        -0.061502 
     40 C           0.683559    0.329996    1.760863 C.2       1 <1>        -0.061502 
     41 C          -3.773818   -1.239569    3.095426 C.3       1 <1>        -0.039709 
     42 H         -10.068989   -3.311279    3.170161 H         1 <1>         0.023804 
     43 H         -11.604311   -3.793603    2.419534 H         1 <1>         0.023804 
     44 H         -10.200157   -3.406901    1.392754 H         1 <1>         0.023804 
     45 H         -11.943868   -6.210020    1.571998 H         1 <1>         0.027351 
     46 H         -10.850314   -5.547488    0.336310 H         1 <1>         0.027351 
     47 H         -10.441134   -8.213569    1.812310 H         1 <1>         0.026653 
     48 H         -10.935988   -7.985857    0.127132 H         1 <1>         0.026653 
     49 H          -8.460825   -8.442626    0.235244 H         1 <1>         0.029608 
     50 H          -8.815839   -6.827365   -0.425088 H         1 <1>         0.029608 
     51 H         -11.444392   -5.741744    4.052028 H         1 <1>         0.023804 
     52 H          -9.758877   -5.417196    4.541070 H         1 <1>         0.023804 
     53 H         -10.211498   -7.001431    3.875342 H         1 <1>         0.023804 
     54 H          -5.700247   -5.406175    2.570072 H         1 <1>         0.068820 
     55 H          -7.753986   -3.552169    2.563886 H         1 <1>         0.060147 
     56 H          -8.446399   -8.323205    3.106453 H         1 <1>         0.026054 
     57 H          -6.876558   -8.504886    2.301548 H         1 <1>         0.026054 
     58 H          -7.100748   -7.239796    3.539067 H         1 <1>         0.026054 
     59 H          -4.035513   -3.750755    2.024132 H         1 <1>         0.061798 
     60 H          -4.022042   -2.633684   -0.865930 H         1 <1>         0.061766 
     61 H          -2.685611   -0.868538   -0.186214 H         1 <1>         0.062020 
     62 H           1.650482    0.475096   -0.204232 H         1 <1>         0.062020 
     63 H           4.056134    0.952263   -0.678577 H         1 <1>         0.062020 
     64 H           4.588476    3.340566    1.142330 H         1 <1>         0.061775 
     65 H           5.651872    2.565329   -1.710519 H         1 <1>         0.062020 
     66 H           7.747292    3.644482   -2.486560 H         1 <1>         0.062029 
     67 H           7.595343    6.516072   -1.429644 H         1 <1>         0.062053 
     68 H          -7.434738   -4.274758   -0.509234 H         1 <1>         0.027536 
     69 H          -5.866875   -4.320716   -1.352129 H         1 <1>         0.027536 
     70 H          -6.498464   -2.777389   -0.688797 H         1 <1>         0.027536 
     71 H           6.757583    4.188999    1.509344 H         1 <1>         0.027753 
     72 H           7.693223    5.424685    0.675563 H         1 <1>         0.027753 
     73 H           5.911760    5.585051    0.756466 H         1 <1>         0.027753 
     74 H          12.020030    6.841253   -4.027769 H         1 <1>         0.027367 
     75 H          11.276820    5.267393   -4.397563 H         1 <1>         0.027367 
     76 H          10.125822    7.974609   -5.306034 H         1 <1>         0.026856 
     77 H          11.040409    6.841745   -6.322638 H         1 <1>         0.026856 
     78 H           8.501642    6.626577   -6.494762 H         1 <1>         0.031008 
     79 H           9.348922    5.106641   -6.114871 H         1 <1>         0.031008 
     80 H           9.535126    8.570570   -3.137907 H         1 <1>         0.023812 
     81 H          11.093692    8.336050   -2.298813 H         1 <1>         0.023812 
     82 H           9.564172    7.989692   -1.467106 H         1 <1>         0.023812 
     83 H          11.814983    5.870023   -1.630616 H         1 <1>         0.023812 
     84 H          10.221512    5.670859   -0.863917 H         1 <1>         0.023812 
     85 H          10.756163    4.509984   -2.103595 H         1 <1>         0.023812 
     86 H           4.357727    1.689961    2.843387 H         1 <1>         0.027753 
     87 H           2.702685    2.332301    3.059111 H         1 <1>         0.027753 
     88 H           3.058583    0.586068    3.294270 H         1 <1>         0.027753 
     89 H           6.346263    6.177552   -5.450469 H         1 <1>         0.027453 
     90 H           6.160756    5.380671   -3.889985 H         1 <1>         0.027453 
     91 H           6.814589    4.463904   -5.268883 H         1 <1>         0.027453 
     92 H          -1.364471   -0.353285    3.348878 H         1 <1>         0.062020 
     93 H          -0.435086   -0.729818    0.359042 H         1 <1>         0.061766 
     94 H           0.724708    0.679114    2.791445 H         1 <1>         0.061766 
     95 H          -4.786185   -1.382793    2.690939 H         1 <1>         0.027753 
     96 H          -3.795297   -0.319163    3.699280 H         1 <1>         0.027753 
     97 H          -3.522178   -2.083323    3.755085 H         1 <1>         0.027753 
@<TRIPOS>BOND
     1    2    1 1    
     2    1   42 1    
     3    1   43 1    
     4    1   44 1    
     5    2    3 1    
     6    7    2 1    
     7    2    8 1    
     8    3    4 1    
     9    3   45 1    
    10    3   46 1    
    11    5    4 1    
    12    4   47 1    
    13    4   48 1    
    14    6    5 1    
    15    5   49 1    
    16    5   50 1    
    17    7    6 1    
    18    9    6 1    
    19    6   12 1    
    20   11    7 2    
    21    8   51 1    
    22    8   52 1    
    23    8   53 1    
    24   10    9 1    
    25   10   11 1    
    26   13   10 1    
    27   10   54 1    
    28   11   55 1    
    29   12   56 1    
    30   12   57 1    
    31   12   58 1    
    32   14   13 2    
    33   13   25 1    
    34   15   14 1    
    35   14   59 1    
    36   16   15 2    
    37   15   60 1    
    38   37   16 1    
    39   16   61 1    
    40   17   18 2    
    41   40   17 1    
    42   17   62 1    
    43   18   19 1    
    44   18   35 1    
    45   19   20 2    
    46   19   63 1    
    47   20   21 1    
    48   20   64 1    
    49   21   22 2    
    50   21   65 1    
    51   22   23 1    
    52   22   26 1    
    53   23   24 2    
    54   23   66 1    
    55   24   27 1    
    56   24   67 1    
    57   25   68 1    
    58   25   69 1    
    59   25   70 1    
    60   26   71 1    
    61   26   72 1    
    62   26   73 1    
    63   27   28 1    
    64   27   32 2    
    65   28   29 1    
    66   28   33 1    
    67   28   34 1    
    68   29   30 1    
    69   29   74 1    
    70   29   75 1    
    71   31   30 1    
    72   30   76 1    
    73   30   77 1    
    74   32   31 1    
    75   31   78 1    
    76   31   79 1    
    77   32   36 1    
    78   33   80 1    
    79   33   81 1    
    80   33   82 1    
    81   34   83 1    
    82   34   84 1    
    83   34   85 1    
    84   35   86 1    
    85   35   87 1    
    86   35   88 1    
    87   36   89 1    
    88   36   90 1    
    89   36   91 1    
    90   38   37 2    
    91   37   41 1    
    92   39   38 1    
    93   38   92 1    
    94   39   40 2    
    95   39   93 1    
    96   40   94 1    
    97   41   95 1    
    98   41   96 1    
    99   41   97 1    
@<TRIPOS>SUBSTRUCTURE
     1 ****        1 TEMP              0 ****  ****    0 ROOT 
@<TRIPOS>NORMAL
@<TRIPOS>FF_PBC
FORCE_FIELD_SETUP_FEATURE Force Field Setup information
v1.0  0 0.000000 0.000000 0.000000 0.000000 0.000000 0.000000 NONE 0 0 0 0 1 0 0 0 0 0 0 0 0
