@<TRIPOS>MOLECULE
MOL013279
   39    41     1     1     0
SMALL
GASTEIGER


@<TRIPOS>ATOM
      1 C          -1.292340    0.817566   -0.000616 C.ar      1 <1>         0.098819 
      2 C          -0.855276    2.227299    0.033053 C.ar      1 <1>         0.082193 
      3 O          -0.351755   -0.215440   -0.008907 O.3       1 <1>        -0.307712 
      4 C          -2.654011    0.508778   -0.024411 C.ar      1 <1>        -0.000283 
      5 C          -1.794658    3.277751    0.041664 C.ar      1 <1>         0.091551 
      6 C           0.637205    2.431758    0.056533 C.2       1 <1>         0.193517 
      7 C           0.977664   -0.012286    0.012455 C.2       1 <1>         0.093865 
      8 C          -3.666383    1.596791   -0.016010 C.ar      1 <1>         0.080758 
      9 C          -3.241018    2.936437    0.016080 C.ar      1 <1>        -0.000807 
     10 O          -1.345032    4.603447    0.073834 O.3       1 <1>        -0.347036 
     11 C           1.484078    1.231406    0.043789 C.2       1 <1>         0.016918 
     12 O           1.144828    3.541103    0.085115 O.2       1 <1>        -0.287017 
     13 C           1.834404   -1.267482   -0.001290 C.ar      1 <1>         0.005751 
     14 O          -5.041575    1.332685   -0.039128 O.3       1 <1>        -0.347746 
     15 C          -2.263531    5.707552    0.083501 C.3       1 <1>         0.043055 
     16 C           1.136134   -2.579095   -0.035655 C.ar      1 <1>        -0.049674 
     17 C           3.258746   -1.280211    0.016271 C.ar      1 <1>        -0.049674 
     18 C          -5.544168   -0.012583   -0.071734 C.3       1 <1>         0.043029 
     19 C           1.855198   -3.786325   -0.050179 C.ar      1 <1>        -0.031056 
     20 C           4.014983   -2.556523    0.000901 C.ar      1 <1>        -0.031056 
     21 C           3.334466   -3.790748   -0.031705 C.ar      1 <1>         0.075851 
     22 O           4.003173   -5.022590   -0.047301 O.3       1 <1>        -0.347912 
     23 C           5.437080   -5.111218   -0.030716 C.3       1 <1>         0.043026 
     24 H          -2.940953   -0.534522   -0.048821 H         1 <1>         0.066955 
     25 H          -4.001116    3.706772    0.021448 H         1 <1>         0.066939 
     26 H           2.547289    1.449190    0.062044 H         1 <1>         0.068219 
     27 H          -1.672197    6.634628    0.109594 H         1 <1>         0.052870 
     28 H          -2.904775    5.680390    0.977821 H         1 <1>         0.052870 
     29 H          -2.880947    5.715995   -0.827798 H         1 <1>         0.052870 
     30 H           0.051996   -2.619894   -0.050043 H         1 <1>         0.062503 
     31 H           3.837005   -0.367059    0.041280 H         1 <1>         0.062503 
     32 H          -6.642806    0.040277   -0.084951 H         1 <1>         0.052870 
     33 H          -5.234858   -0.571610    0.824717 H         1 <1>         0.052870 
     34 H          -5.211477   -0.536622   -0.980856 H         1 <1>         0.052870 
     35 H           1.327664   -4.733943   -0.075305 H         1 <1>         0.064346 
     36 H           5.096646   -2.508914    0.015399 H         1 <1>         0.064346 
     37 H           5.706970   -6.177384   -0.048053 H         1 <1>         0.052869 
     38 H           5.850019   -4.664345    0.886640 H         1 <1>         0.052869 
     39 H           5.873094   -4.629148   -0.919116 H         1 <1>         0.052869 
@<TRIPOS>BOND
     1    1    2 1    
     2    1    3 1    
     3    1    4 2    
     4    2    5 2    
     5    2    6 1    
     6    3    7 1    
     7    4    8 1    
     8    4   24 1    
     9    5    9 1    
    10    5   10 1    
    11    6   11 1    
    12    6   12 2    
    13    7   11 2    
    14    7   13 1    
    15    8    9 2    
    16    8   14 1    
    17    9   25 1    
    18   10   15 1    
    19   11   26 1    
    20   13   16 1    
    21   13   17 2    
    22   14   18 1    
    23   15   27 1    
    24   15   28 1    
    25   15   29 1    
    26   16   19 2    
    27   16   30 1    
    28   17   20 1    
    29   17   31 1    
    30   18   32 1    
    31   18   33 1    
    32   18   34 1    
    33   19   21 1    
    34   19   35 1    
    35   20   21 2    
    36   20   36 1    
    37   21   22 1    
    38   22   23 1    
    39   23   37 1    
    40   23   38 1    
    41   23   39 1    
@<TRIPOS>SUBSTRUCTURE
     1 ****        1 TEMP              0 ****  ****    0 ROOT 
@<TRIPOS>NORMAL
@<TRIPOS>FF_PBC
FORCE_FIELD_SETUP_FEATURE Force Field Setup information
v1.0  0 0.000000 0.000000 0.000000 0.000000 0.000000 0.000000 NONE 0 0 0 0 1 0 0 0 0 0 0 0 0
