@<TRIPOS>MOLECULE
MOL004941
   31    33     1     1     0
SMALL
GASTEIGER


@<TRIPOS>ATOM
      1 C          -2.887302    1.176830   -0.236469 C.ar      1 <1>        -0.046345 
      2 C          -3.811106    0.021002   -0.342141 C.ar      1 <1>        -0.031116 
      3 C          -1.744023    1.053053    0.458878 C.ar      1 <1>         0.047604 
      4 C          -1.419226   -0.225116    1.134665 C.ar      1 <1>         0.089874 
      5 C          -2.252741   -1.269986    1.029250 C.ar      1 <1>        -0.001193 
      6 C          -3.510271   -1.147150    0.247316 C.ar      1 <1>         0.075065 
      7 C          -0.737597    2.173624    0.575021 C.2       1 <1>         0.168428 
      8 C           0.428257    1.997259    1.503015 C.3       1 <1>         0.041476 
      9 C           0.858662    0.508515    1.568910 C.3       1 <1>         0.097160 
     10 O          -0.251976   -0.346717    1.889807 O.3       1 <1>        -0.335670 
     11 C           1.642062    0.027949    0.328776 C.ar      1 <1>        -0.017820 
     12 C           3.072076   -0.354066    0.475260 C.ar      1 <1>        -0.053661 
     13 C           3.809448   -0.818646   -0.619940 C.ar      1 <1>        -0.031601 
     14 C           3.181825   -0.934634   -1.954824 C.ar      1 <1>         0.072600 
     15 C           1.838196   -0.563833   -2.109427 C.ar      1 <1>        -0.031601 
     16 C           1.058477   -0.074473   -0.947001 C.ar      1 <1>        -0.053661 
     17 O          -0.866227    3.201668   -0.068808 O.2       1 <1>        -0.291871 
     18 O           3.939509   -1.409572   -3.029503 O.3       1 <1>        -0.359832 
     19 O          -4.386027   -2.226376    0.115916 O.3       1 <1>        -0.359749 
     20 H          -3.137103    2.112074   -0.727567 H         1 <1>         0.062610 
     21 H          -4.734412    0.116551   -0.904558 H         1 <1>         0.064341 
     22 H          -2.000651   -2.201683    1.522879 H         1 <1>         0.066929 
     23 H           1.277872    2.623196    1.189140 H         1 <1>         0.037398 
     24 H           0.093810    2.330028    2.498426 H         1 <1>         0.037398 
     25 H           1.528034    0.406012    2.438124 H         1 <1>         0.065571 
     26 H           3.564270   -0.278278    1.438869 H         1 <1>         0.062190 
     27 H           4.850751   -1.098137   -0.501087 H         1 <1>         0.064329 
     28 H           1.354667   -0.633370   -3.078263 H         1 <1>         0.064329 
     29 H           0.026947    0.194420   -1.116430 H         1 <1>         0.062190 
     30 H           3.450196   -1.518573   -3.836839 H         1 <1>         0.217313 
     31 H          -4.046619   -3.038486    0.474457 H         1 <1>         0.217315 
@<TRIPOS>BOND
     1    1    2 1    
     2    1    3 2    
     3    1   20 1    
     4    2    6 2    
     5    2   21 1    
     6    3    4 1    
     7    3    7 1    
     8    4    5 2    
     9    4   10 1    
    10    5    6 1    
    11    5   22 1    
    12    6   19 1    
    13    7    8 1    
    14    7   17 2    
    15    8    9 1    
    16    8   23 1    
    17    8   24 1    
    18    9   10 1    
    19    9   11 1    
    20    9   25 1    
    21   11   12 1    
    22   11   16 2    
    23   12   13 2    
    24   12   26 1    
    25   13   14 1    
    26   13   27 1    
    27   14   15 2    
    28   14   18 1    
    29   15   16 1    
    30   15   28 1    
    31   16   29 1    
    32   18   30 1    
    33   19   31 1    
@<TRIPOS>SUBSTRUCTURE
     1 ****        1 TEMP              0 ****  ****    0 ROOT 
@<TRIPOS>NORMAL
@<TRIPOS>FF_PBC
FORCE_FIELD_SETUP_FEATURE Force Field Setup information
v1.0  0 0.000000 0.000000 0.000000 0.000000 0.000000 0.000000 NONE 0 0 0 0 1 0 0 0 0 0 0 0 0
