@<TRIPOS>MOLECULE
MOL002922
   24    24     1     1     0
SMALL
GASTEIGER


@<TRIPOS>ATOM
      1 O           3.883654   -2.211918    1.430038 O.3       1 <1>        -0.394685 
      2 O          -2.905769   -1.311735    0.007563 O.3       1 <1>        -0.357263 
      3 O          -2.847914    1.485971   -0.562948 O.3       1 <1>        -0.345349 
      4 C           2.681745   -1.426387    1.340551 C.3       1 <1>         0.048174 
      5 C           2.116852   -1.558292   -0.093461 C.3       1 <1>        -0.004325 
      6 C           0.822997   -0.744886   -0.222762 C.ar      1 <1>        -0.042614 
      7 C          -0.494982   -1.402501   -0.048888 C.ar      1 <1>        -0.026145 
      8 C           0.872212    0.632565   -0.506149 C.ar      1 <1>        -0.055901 
      9 C          -1.680248   -0.665518   -0.162497 C.ar      1 <1>         0.102695 
     10 C          -0.377558    1.420726   -0.629324 C.ar      1 <1>        -0.028898 
     11 C          -1.634645    0.788675   -0.460099 C.ar      1 <1>         0.105419 
     12 C          -2.894857    2.899108   -0.817219 C.3       1 <1>         0.043135 
     13 H           4.287024   -2.180797    2.292813 H         1 <1>         0.209408 
     14 H          -3.629597   -0.700542   -0.089256 H         1 <1>         0.217422 
     15 H           2.898188   -0.365237    1.553750 H         1 <1>         0.056020 
     16 H           1.930201   -1.787809    2.063637 H         1 <1>         0.056020 
     17 H           1.920341   -2.619383   -0.313437 H         1 <1>         0.033533 
     18 H           2.862474   -1.196817   -0.819093 H         1 <1>         0.033533 
     19 H          -0.551186   -2.463113    0.169314 H         1 <1>         0.064677 
     20 H           1.829368    1.127411   -0.635240 H         1 <1>         0.062111 
     21 H          -0.297427    2.477571   -0.848827 H         1 <1>         0.064419 
     22 H          -3.953082    3.199108   -0.838002 H         1 <1>         0.052871 
     23 H          -2.390598    3.462715   -0.017030 H         1 <1>         0.052871 
     24 H          -2.447295    3.141487   -1.793334 H         1 <1>         0.052871 
@<TRIPOS>BOND
     1    4    1 1    
     2    1   13 1    
     3    9    2 1    
     4    2   14 1    
     5   11    3 1    
     6    3   12 1    
     7    5    4 1    
     8    4   15 1    
     9    4   16 1    
    10    6    5 1    
    11    5   17 1    
    12    5   18 1    
    13    7    6 1    
    14    6    8 2    
    15    9    7 2    
    16    7   19 1    
    17    8   10 1    
    18    8   20 1    
    19    9   11 1    
    20   10   11 2    
    21   10   21 1    
    22   12   22 1    
    23   12   23 1    
    24   12   24 1    
@<TRIPOS>SUBSTRUCTURE
     1 ****        1 TEMP              0 ****  ****    0 ROOT 
@<TRIPOS>NORMAL
@<TRIPOS>FF_PBC
FORCE_FIELD_SETUP_FEATURE Force Field Setup information
v1.0  0 0.000000 0.000000 0.000000 0.000000 0.000000 0.000000 NONE 0 0 0 0 1 0 0 0 0 0 0 0 0
