@<TRIPOS>MOLECULE
MOL004631
   30    32     1     1     0
SMALL
GASTEIGER


@<TRIPOS>ATOM
      1 C           0.089851    1.904398   -1.535958 C.ar      1 <1>         0.125261 
      2 C          -0.746712    0.719253   -1.767729 C.ar      1 <1>         0.055446 
      3 C           0.091864    2.972426   -2.470910 C.ar      1 <1>         0.133881 
      4 O           0.879829    1.973742   -0.395078 O.3       1 <1>        -0.312775 
      5 C          -0.666199   -0.348233   -0.707858 C.2       1 <1>         0.198176 
      6 C          -1.559429    0.629511   -2.925168 C.ar      1 <1>        -0.045813 
      7 O           0.882775    4.106733   -2.264005 O.3       1 <1>        -0.355363 
      8 C          -0.758329    2.883414   -3.686032 C.ar      1 <1>         0.104838 
      9 C           0.927562    1.001188    0.531794 C.2       1 <1>         0.058361 
     10 C           0.223378   -0.149348    0.470938 C.2       1 <1>         0.052568 
     11 O          -1.357772   -1.333020   -0.895334 O.2       1 <1>        -0.286477 
     12 C          -1.558434    1.744417   -3.902790 C.ar      1 <1>        -0.028566 
     13 O          -0.773026    3.920745   -4.619439 O.3       1 <1>        -0.357213 
     14 C           0.351605   -1.193597    1.583209 C.ar      1 <1>        -0.012138 
     15 C           1.241932   -1.001389    2.768514 C.ar      1 <1>        -0.051421 
     16 C          -0.383073   -2.462932    1.580776 C.ar      1 <1>        -0.051421 
     17 C          -0.248739   -3.465184    2.665360 C.ar      1 <1>        -0.031363 
     18 C           0.600403   -3.230495    3.750715 C.ar      1 <1>         0.072617 
     19 C           1.359676   -1.965370    3.794337 C.ar      1 <1>        -0.031363 
     20 O           0.747140   -4.156577    4.787276 O.3       1 <1>        -0.359832 
     21 H          -2.178290   -0.244802   -3.098710 H         1 <1>         0.062623 
     22 H           1.381217    4.048098   -1.454371 H         1 <1>         0.217502 
     23 H           1.614933    1.304365    1.311352 H         1 <1>         0.089750 
     24 H          -2.176535    1.686668   -4.792288 H         1 <1>         0.064425 
     25 H          -0.192988    4.629886   -4.359952 H         1 <1>         0.217423 
     26 H           1.843585   -0.116396    2.906231 H         1 <1>         0.062443 
     27 H          -1.061841   -2.740574    0.792363 H         1 <1>         0.062443 
     28 H          -0.819107   -4.386470    2.607030 H         1 <1>         0.064338 
     29 H           2.018353   -1.785192    4.637926 H         1 <1>         0.064338 
     30 H           0.226171   -4.945265    4.687398 H         1 <1>         0.217313 
@<TRIPOS>BOND
     1    1    2 1    
     2    1    3 2    
     3    1    4 1    
     4    2    5 1    
     5    2    6 2    
     6    3    7 1    
     7    3    8 1    
     8    4    9 1    
     9    5   10 1    
    10    5   11 2    
    11    6   12 1    
    12    6   21 1    
    13    7   22 1    
    14    8   12 2    
    15    8   13 1    
    16    9   10 2    
    17    9   23 1    
    18   10   14 1    
    19   12   24 1    
    20   13   25 1    
    21   14   15 1    
    22   14   16 2    
    23   15   19 2    
    24   15   26 1    
    25   16   17 1    
    26   16   27 1    
    27   17   18 2    
    28   17   28 1    
    29   18   19 1    
    30   18   20 1    
    31   19   29 1    
    32   20   30 1    
@<TRIPOS>SUBSTRUCTURE
     1 ****        1 TEMP              0 ****  ****    0 ROOT 
@<TRIPOS>NORMAL
@<TRIPOS>FF_PBC
FORCE_FIELD_SETUP_FEATURE Force Field Setup information
v1.0  0 0.000000 0.000000 0.000000 0.000000 0.000000 0.000000 NONE 0 0 0 0 1 0 0 0 0 0 0 0 0
