@<TRIPOS>MOLECULE
MOL001168
   39    39     1     1     0
SMALL
GASTEIGER


@<TRIPOS>ATOM
      1 C           2.095881    1.194036   -3.290562 C.2       1 <1>        -0.102093 
      2 C           1.211791   -3.108564   -0.262364 C.2       1 <1>        -0.099410 
      3 C           0.477075   -2.002615   -0.063153 C.2       1 <1>        -0.075504 
      4 C           1.027098   -0.606360   -0.362344 C.3       1 <1>        -0.007913 
      5 C           0.460573    0.089334   -1.643299 C.3       1 <1>        -0.007273 
      6 C           1.455413    1.149767   -2.112793 C.2       1 <1>        -0.084602 
      7 C           1.024465    0.322815    0.889622 C.3       1 <1>        -0.024211 
      8 C          -0.290335    1.043877    1.131604 C.2       1 <1>        -0.070196 
      9 C          -0.846119    1.737013   -0.099325 C.3       1 <1>        -0.030696 
     10 C          -0.895295    0.785949   -1.325745 C.3       1 <1>        -0.039929 
     11 C          -0.935984   -2.142232    0.469006 C.3       1 <1>        -0.043740 
     12 C           0.221092   -0.975647   -2.758555 C.3       1 <1>        -0.055540 
     13 C          -0.899261    1.077533    2.336519 C.2       1 <1>        -0.076440 
     14 C          -2.217046    1.799759    2.552240 C.3       1 <1>        -0.043796 
     15 C          -0.306677    0.398415    3.559116 C.3       1 <1>        -0.043796 
     16 H           2.787367    2.010833   -3.503578 H         1 <1>         0.053192 
     17 H           1.989564    0.462368   -4.087946 H         1 <1>         0.053192 
     18 H           0.811952   -4.100034   -0.051783 H         1 <1>         0.053441 
     19 H           2.231925   -3.078772   -0.643697 H         1 <1>         0.053441 
     20 H           2.096773   -0.760913   -0.589304 H         1 <1>         0.035678 
     21 H           1.700034    1.971098   -1.441249 H         1 <1>         0.057196 
     22 H           1.774438    1.120495    0.774429 H         1 <1>         0.031606 
     23 H           1.366562   -0.298943    1.728181 H         1 <1>         0.031606 
     24 H          -1.865757    2.127901    0.024567 H         1 <1>         0.031033 
     25 H          -0.210385    2.609552   -0.305723 H         1 <1>         0.031033 
     26 H          -1.218502    1.356536   -2.212628 H         1 <1>         0.027669 
     27 H          -1.668019    0.029743   -1.125904 H         1 <1>         0.027669 
     28 H          -1.253291   -1.291150    1.078890 H         1 <1>         0.027437 
     29 H          -1.643723   -2.258227   -0.363123 H         1 <1>         0.027437 
     30 H          -1.025514   -3.036145    1.104917 H         1 <1>         0.027437 
     31 H          -0.150938   -0.498343   -3.678056 H         1 <1>         0.023821 
     32 H          -0.530349   -1.720298   -2.462712 H         1 <1>         0.023821 
     33 H           1.153312   -1.516863   -2.982201 H         1 <1>         0.023821 
     34 H          -2.120201    2.854417    2.253333 H         1 <1>         0.027435 
     35 H          -3.002754    1.315623    1.952645 H         1 <1>         0.027435 
     36 H          -2.562605    1.798148    3.595933 H         1 <1>         0.027435 
     37 H          -0.296319   -0.692201    3.413621 H         1 <1>         0.027435 
     38 H           0.720325    0.757032    3.725107 H         1 <1>         0.027435 
     39 H          -0.859110    0.594553    4.489114 H         1 <1>         0.027435 
@<TRIPOS>BOND
     1    6    1 2    
     2    1   16 1    
     3    1   17 1    
     4    3    2 2    
     5    2   18 1    
     6    2   19 1    
     7    4    3 1    
     8    3   11 1    
     9    5    4 1    
    10    4    7 1    
    11    4   20 1    
    12    5    6 1    
    13    5   10 1    
    14    5   12 1    
    15    6   21 1    
    16    7    8 1    
    17    7   22 1    
    18    7   23 1    
    19    8    9 1    
    20    8   13 2    
    21    9   10 1    
    22    9   24 1    
    23    9   25 1    
    24   10   26 1    
    25   10   27 1    
    26   11   28 1    
    27   11   29 1    
    28   11   30 1    
    29   12   31 1    
    30   12   32 1    
    31   12   33 1    
    32   13   14 1    
    33   13   15 1    
    34   14   34 1    
    35   14   35 1    
    36   14   36 1    
    37   15   37 1    
    38   15   38 1    
    39   15   39 1    
@<TRIPOS>SUBSTRUCTURE
     1 ****        2 TEMP              0 ****  ****    0 ROOT 
@<TRIPOS>NORMAL
@<TRIPOS>FF_PBC
FORCE_FIELD_SETUP_FEATURE Force Field Setup information
v1.0  0 0.000000 0.000000 0.000000 0.000000 0.000000 0.000000 NONE 0 0 0 0 1 0 0 0 0 0 0 0 0
