@<TRIPOS>MOLECULE
MOL002139
   21    21     1     1     0
SMALL
GASTEIGER


@<TRIPOS>ATOM
      1 C           0.055655   -0.855228    0.228000 C.ar      1 <1>         0.044411 
      2 N           0.855403    0.210039   -0.054589 N.pl3     1 <1>        -0.264497 
      3 C           0.695676   -2.152403    0.574645 C.ar      1 <1>        -0.039384 
      4 C          -1.390629   -0.809384    0.213504 C.ar      1 <1>        -0.039384 
      5 N           0.399021    1.502047   -0.399416 N.am      1 <1>        -0.236730 
      6 C          -0.073350   -3.292307    0.877198 C.ar      1 <1>        -0.059969 
      7 C          -2.186188   -2.018974    0.534610 C.ar      1 <1>        -0.059969 
      8 C           1.307671    2.472914   -0.657161 C.2       1 <1>         0.225917 
      9 C          -1.551754   -3.222833    0.856400 C.ar      1 <1>        -0.061644 
     10 C           0.876003    3.870180   -1.030013 C.3       1 <1>         0.013596 
     11 O           2.504903    2.243855   -0.594749 O.2       1 <1>        -0.274597 
     12 H           1.880122    0.071554   -0.016190 H         1 <1>         0.169988 
     13 H           1.777413   -2.232682    0.597709 H         1 <1>         0.063643 
     14 H          -1.940637    0.088394   -0.026623 H         1 <1>         0.063643 
     15 H          -0.565178    1.741633   -0.464235 H         1 <1>         0.172699 
     16 H           0.416613   -4.228088    1.127306 H         1 <1>         0.061816 
     17 H          -3.270522   -1.968339    0.519443 H         1 <1>         0.061816 
     18 H          -2.138681   -4.105380    1.090679 H         1 <1>         0.061760 
     19 H          -0.216980    3.987472   -1.063287 H         1 <1>         0.032295 
     20 H           1.281221    4.578772   -0.292470 H         1 <1>         0.032295 
     21 H           1.284418    4.118559   -2.020861 H         1 <1>         0.032295 
@<TRIPOS>BOND
     1    1    2 1    
     2    1    3 1    
     3    1    4 2    
     4    2    5 1    
     5    2   12 1    
     6    3    6 2    
     7    3   13 1    
     8    4    7 1    
     9    4   14 1    
    10    5    8 1    
    11    5   15 1    
    12    6    9 1    
    13    6   16 1    
    14    7    9 2    
    15    7   17 1    
    16    8   10 1    
    17    8   11 2    
    18    9   18 1    
    19   10   19 1    
    20   10   20 1    
    21   10   21 1    
@<TRIPOS>SUBSTRUCTURE
     1 ****        1 TEMP              0 ****  ****    0 ROOT 
@<TRIPOS>NORMAL
@<TRIPOS>FF_PBC
FORCE_FIELD_SETUP_FEATURE Force Field Setup information
v1.0  0 0.000000 0.000000 0.000000 0.000000 0.000000 0.000000 NONE 0 0 0 0 1 0 0 0 0 0 0 0 0
