@<TRIPOS>MOLECULE
MOL004726
   21    21     1     1     0
SMALL
GASTEIGER


@<TRIPOS>ATOM
      1 O          -1.833260    0.811075   -0.712080 O.3       1 <1>        -0.311865 
      2 O          -4.008843    0.834234   -0.147587 O.2       1 <1>        -0.264965 
      3 C          -0.724565   -0.064747   -0.454258 C.3       1 <1>         0.068530 
      4 C          -1.041545   -0.626706    0.949748 C.3       1 <1>        -0.017021 
      5 C           0.618165    0.703053   -0.559459 C.3       1 <1>        -0.026244 
      6 C          -2.569439   -0.815160    0.845779 C.3       1 <1>         0.035560 
      7 C           1.840504   -0.206515   -0.260245 C.3       1 <1>        -0.053553 
      8 C          -2.895310    0.347389   -0.047367 C.2       1 <1>         0.262499 
      9 C           3.172084    0.568990   -0.435679 C.3       1 <1>        -0.065196 
     10 H          -0.753251   -0.886442   -1.192148 H         1 <1>         0.060203 
     11 H          -0.511385   -1.563351    1.185819 H         1 <1>         0.029507 
     12 H          -0.808155    0.130732    1.716555 H         1 <1>         0.029507 
     13 H           0.700564    1.107237   -1.581562 H         1 <1>         0.029019 
     14 H           0.602572    1.552736    0.141829 H         1 <1>         0.029019 
     15 H          -3.075532   -0.762400    1.822394 H         1 <1>         0.036689 
     16 H          -2.836112   -1.752178    0.332246 H         1 <1>         0.036689 
     17 H           1.784635   -0.581876    0.774566 H         1 <1>         0.026344 
     18 H           1.833214   -1.071729   -0.943923 H         1 <1>         0.026344 
     19 H           4.027001   -0.090049   -0.215901 H         1 <1>         0.022979 
     20 H           3.270563    0.936205   -1.469186 H         1 <1>         0.022979 
     21 H           3.208098    1.429798    0.250257 H         1 <1>         0.022979 
@<TRIPOS>BOND
     1    1    3 1    
     2    1    8 1    
     3    8    2 2    
     4    3    4 1    
     5    3    5 1    
     6    3   10 1    
     7    4    6 1    
     8    4   11 1    
     9    4   12 1    
    10    5    7 1    
    11    5   13 1    
    12    5   14 1    
    13    6    8 1    
    14    6   15 1    
    15    6   16 1    
    16    7    9 1    
    17    7   17 1    
    18    7   18 1    
    19    9   19 1    
    20    9   20 1    
    21    9   21 1    
@<TRIPOS>SUBSTRUCTURE
     1 ****        1 TEMP              0 ****  ****    0 ROOT 
@<TRIPOS>NORMAL
@<TRIPOS>FF_PBC
FORCE_FIELD_SETUP_FEATURE Force Field Setup information
v1.0  0 0.000000 0.000000 0.000000 0.000000 0.000000 0.000000 NONE 0 0 0 0 1 0 0 0 0 0 0 0 0
