@<TRIPOS>MOLECULE
MOL002714
   30    32     1     1     0
SMALL
GASTEIGER


@<TRIPOS>ATOM
      1 C          -1.173136   -0.333071    0.471935 C.ar      1 <1>         0.098972 
      2 C          -1.139743    0.482465    1.702320 C.ar      1 <1>         0.084483 
      3 O          -0.094531   -0.320284   -0.414795 O.3       1 <1>        -0.307709 
      4 C          -2.290538   -1.124739    0.189376 C.ar      1 <1>         0.002007 
      5 C          -2.224920    0.475024    2.602734 C.ar      1 <1>         0.118231 
      6 C           0.114892    1.292545    1.898061 C.2       1 <1>         0.193594 
      7 C           1.018753    0.410556   -0.222517 C.2       1 <1>         0.093863 
      8 C          -3.445447   -1.148783    1.122811 C.ar      1 <1>         0.107299 
      9 C          -3.411758   -0.365699    2.302803 C.ar      1 <1>         0.133297 
     10 O          -2.182253    1.249862    3.762486 O.3       1 <1>        -0.356594 
     11 C           1.153763    1.188392    0.864397 C.2       1 <1>         0.016920 
     12 O           0.279621    2.011943    2.869716 O.2       1 <1>        -0.287016 
     13 C           2.079974    0.288009   -1.303440 C.ar      1 <1>         0.005594 
     14 O          -4.571544   -1.933524    0.858264 O.3       1 <1>        -0.357155 
     15 O          -4.487852   -0.373359    3.195242 O.3       1 <1>        -0.355379 
     16 C           1.793415   -0.612750   -2.451835 C.ar      1 <1>        -0.052112 
     17 C           3.331189    0.974549   -1.296225 C.ar      1 <1>        -0.052112 
     18 C           2.718619   -0.784016   -3.493599 C.ar      1 <1>        -0.061122 
     19 C           4.304451    0.789505   -2.399591 C.ar      1 <1>        -0.061122 
     20 C           4.010796   -0.062801   -3.467295 C.ar      1 <1>        -0.061721 
     21 H          -2.301600   -1.718578   -0.717655 H         1 <1>         0.067031 
     22 H          -2.975880    1.152635    4.279364 H         1 <1>         0.217446 
     23 H           2.030506    1.796049    1.065444 H         1 <1>         0.068219 
     24 H          -4.513705   -2.427381    0.047784 H         1 <1>         0.217423 
     25 H          -5.188866   -0.946847    2.899366 H         1 <1>         0.217502 
     26 H           0.854556   -1.154376   -2.498094 H         1 <1>         0.062424 
     27 H           3.613224    1.646189   -0.497456 H         1 <1>         0.062424 
     28 H           2.489228   -1.446432   -4.322463 H         1 <1>         0.061777 
     29 H           5.251211    1.320349   -2.376578 H         1 <1>         0.061777 
     30 H           4.724105   -0.197335   -4.274293 H         1 <1>         0.061759 
@<TRIPOS>BOND
     1    1    2 1    
     2    1    3 1    
     3    1    4 2    
     4    2    5 2    
     5    2    6 1    
     6    3    7 1    
     7    4    8 1    
     8    4   21 1    
     9    5    9 1    
    10    5   10 1    
    11    6   11 1    
    12    6   12 2    
    13    7   11 2    
    14    7   13 1    
    15    8    9 2    
    16    8   14 1    
    17    9   15 1    
    18   10   22 1    
    19   11   23 1    
    20   13   16 1    
    21   13   17 2    
    22   14   24 1    
    23   15   25 1    
    24   16   18 2    
    25   16   26 1    
    26   17   19 1    
    27   17   27 1    
    28   18   20 1    
    29   18   28 1    
    30   19   20 2    
    31   19   29 1    
    32   20   30 1    
@<TRIPOS>SUBSTRUCTURE
     1 ****        1 TEMP              0 ****  ****    0 ROOT 
@<TRIPOS>NORMAL
@<TRIPOS>FF_PBC
FORCE_FIELD_SETUP_FEATURE Force Field Setup information
v1.0  0 0.000000 0.000000 0.000000 0.000000 0.000000 0.000000 NONE 0 0 0 0 1 0 0 0 0 0 0 0 0
