@<TRIPOS>MOLECULE
MOL001211
   40    40     1     1     0
SMALL
GASTEIGER


@<TRIPOS>ATOM
      1 C          -3.875585   -0.576659    0.280359 C.3       1 <1>         0.065046 
      2 C          -3.454326   -1.990603   -0.062488 C.2       1 <1>        -0.051487 
      3 C          -2.177070   -2.334261   -0.299680 C.2       1 <1>        -0.082581 
      4 C          -1.016133   -1.370118   -0.217127 C.3       1 <1>        -0.030758 
      5 C           0.348132   -2.104480   -0.103223 C.3       1 <1>        -0.028280 
      6 C           1.635948   -1.302874    0.013006 C.2       1 <1>        -0.072936 
      7 C           2.794285   -1.966160    0.135123 C.2       1 <1>        -0.099165 
      8 O          -5.232794   -0.350359   -0.142797 O.3       1 <1>        -0.390745 
      9 C           1.594596    0.218726   -0.015011 C.3       1 <1>        -0.016427 
     10 C           2.313675    0.773474   -1.270206 C.3       1 <1>        -0.027983 
     11 C           2.438811    2.277166   -1.227521 C.2       1 <1>        -0.084465 
     12 C           2.289502    3.007277   -0.110793 C.2       1 <1>        -0.076493 
     13 C           1.986579    2.383532    1.232912 C.3       1 <1>        -0.031457 
     14 C           2.230920    0.851472    1.247008 C.3       1 <1>        -0.042558 
     15 C           2.407517    4.515160   -0.121721 C.3       1 <1>        -0.043787 
     16 C          -4.567498   -3.013409   -0.120117 C.3       1 <1>        -0.041643 
     17 H          -3.229152    0.164615   -0.216329 H         1 <1>         0.060378 
     18 H          -3.797825   -0.452958    1.372693 H         1 <1>         0.060378 
     19 H          -1.951200   -3.366979   -0.568222 H         1 <1>         0.057234 
     20 H          -1.026979   -0.750878   -1.128369 H         1 <1>         0.031045 
     21 H          -1.149769   -0.739015    0.676150 H         1 <1>         0.031045 
     22 H           0.292131   -2.758031    0.782411 H         1 <1>         0.031295 
     23 H           0.452824   -2.749475   -0.990645 H         1 <1>         0.031295 
     24 H           3.756695   -1.466744    0.221666 H         1 <1>         0.053449 
     25 H           2.809231   -3.055031    0.150381 H         1 <1>         0.053449 
     26 H          -5.555850    0.520425    0.069134 H         1 <1>         0.209834 
     27 H           0.571802    0.614162   -0.053019 H         1 <1>         0.034857 
     28 H           1.746131    0.467262   -2.164638 H         1 <1>         0.031313 
     29 H           3.331648    0.364383   -1.355634 H         1 <1>         0.031313 
     30 H           2.668649    2.769979   -2.173167 H         1 <1>         0.057172 
     31 H           0.929135    2.593182    1.460847 H         1 <1>         0.031008 
     32 H           2.604084    2.849584    2.018569 H         1 <1>         0.031008 
     33 H           3.315825    0.661208    1.262329 H         1 <1>         0.027409 
     34 H           1.789098    0.410017    2.156229 H         1 <1>         0.027409 
     35 H           2.551890    4.920858   -1.134637 H         1 <1>         0.027436 
     36 H           1.492505    4.961075    0.297069 H         1 <1>         0.027436 
     37 H           3.263643    4.822748    0.497536 H         1 <1>         0.027436 
     38 H          -4.197050   -4.045225   -0.216488 H         1 <1>         0.027507 
     39 H          -5.217488   -2.799948   -0.982354 H         1 <1>         0.027507 
     40 H          -5.166739   -2.952991    0.801067 H         1 <1>         0.027507 
@<TRIPOS>BOND
     1    1    2 1    
     2    1    8 1    
     3    1   17 1    
     4    1   18 1    
     5    2    3 2    
     6    2   16 1    
     7    3    4 1    
     8    3   19 1    
     9    4    5 1    
    10    4   20 1    
    11    4   21 1    
    12    5    6 1    
    13    5   22 1    
    14    5   23 1    
    15    6    7 2    
    16    6    9 1    
    17    7   24 1    
    18    7   25 1    
    19    8   26 1    
    20    9   10 1    
    21    9   14 1    
    22    9   27 1    
    23   10   11 1    
    24   10   28 1    
    25   10   29 1    
    26   11   12 2    
    27   11   30 1    
    28   12   13 1    
    29   12   15 1    
    30   13   14 1    
    31   13   31 1    
    32   13   32 1    
    33   14   33 1    
    34   14   34 1    
    35   15   35 1    
    36   15   36 1    
    37   15   37 1    
    38   16   38 1    
    39   16   39 1    
    40   16   40 1    
@<TRIPOS>SUBSTRUCTURE
     1 ****        1 TEMP              0 ****  ****    0 ROOT 
@<TRIPOS>NORMAL
@<TRIPOS>FF_PBC
FORCE_FIELD_SETUP_FEATURE Force Field Setup information
v1.0  0 0.000000 0.000000 0.000000 0.000000 0.000000 0.000000 NONE 0 0 0 0 1 0 0 0 0 0 0 0 0
