@<TRIPOS>MOLECULE
MOL004899
  121   127     1     1     0
SMALL
GASTEIGER


@<TRIPOS>ATOM
      1 C          -4.584391   -6.426694   -3.052250 C.3       1 <1>        -0.038057 
      2 C          -3.326658   -7.094166   -2.432501 C.3       1 <1>        -0.046118 
      3 C          -2.313754   -6.097553   -1.775973 C.3       1 <1>        -0.025453 
      4 C          -2.020169   -4.900645   -2.728740 C.3       1 <1>        -0.013007 
      5 C          -3.302695   -4.285661   -3.363672 C.3       1 <1>        -0.031533 
      6 C          -4.191366   -5.334435   -4.088745 C.3       1 <1>         0.053721 
      7 C          -2.874465   -5.550023   -0.432120 C.3       1 <1>        -0.046277 
      8 C          -1.856457   -4.601375    0.259661 C.3       1 <1>        -0.042891 
      9 C          -1.353615   -3.414391   -0.636508 C.3       1 <1>        -0.005120 
     10 C          -1.216403   -3.754368   -2.118766 C.2       1 <1>        -0.063388 
     11 C           0.059286   -2.857964   -0.126579 C.3       1 <1>        -0.019373 
     12 C           0.389219   -1.546113   -0.924966 C.3       1 <1>        -0.025736 
     13 C           0.390738   -1.821339   -2.464702 C.3       1 <1>        -0.030614 
     14 C          -0.431175   -3.009005   -2.912148 C.2       1 <1>        -0.083647 
     15 C           0.014489   -2.556888    1.411733 C.3       1 <1>        -0.046268 
     16 C           1.149618   -1.634572    1.942437 C.3       1 <1>        -0.048609 
     17 C           1.213134   -0.300528    1.132426 C.3       1 <1>        -0.027826 
     18 C           1.535681   -0.588701   -0.385077 C.3       1 <1>        -0.024959 
     19 C           1.987439    0.892382    1.818430 C.3       1 <1>        -0.005229 
     20 C           1.787718    2.172953    0.937782 C.3       1 <1>         0.067175 
     21 C           2.223053    1.946580   -0.536137 C.3       1 <1>        -0.025470 
     22 C           1.425363    0.768432   -1.164651 C.3       1 <1>        -0.044711 
     23 O           3.402723    4.480716   -0.048971 O.3       1 <1>        -0.332678 
     24 C           3.593548    5.649552   -0.867678 C.3       1 <1>         0.174377 
     25 C           3.873570    6.872282    0.033128 C.3       1 <1>         0.119040 
     26 C           2.683919    7.062127    1.002626 C.3       1 <1>         0.114864 
     27 C           2.416397    5.770604    1.816302 C.3       1 <1>         0.140651 
     28 C           2.280537    4.559081    0.854322 C.3       1 <1>         0.189107 
     29 C          -1.194836    4.693939    5.031731 C.3       1 <1>         0.114497 
     30 C          -1.983575    4.005360    3.878862 C.3       1 <1>         0.119030 
     31 C          -1.261140    4.200370    2.511584 C.3       1 <1>         0.174377 
     32 O           0.148521    4.014221    2.729743 O.3       1 <1>        -0.332684 
     33 C           0.767214    5.077120    3.479570 C.3       1 <1>         0.189056 
     34 C          -0.206485    5.752471    4.485994 C.3       1 <1>         0.134152 
     35 C          -2.513663   -2.341320   -0.636742 C.3       1 <1>        -0.055324 
     36 C          -5.476609   -4.647462   -4.637063 C.3       1 <1>        -0.050480 
     37 C           2.985742   -1.153776   -0.626418 C.3       1 <1>        -0.059009 
     38 C           1.380466    1.211543    3.229822 C.3       1 <1>        -0.057181 
     39 C           3.502589    0.618406    2.067243 C.3       1 <1>        -0.057181 
     40 O           2.394999    3.319753    1.584014 O.3       1 <1>        -0.344868 
     41 O           1.229065    6.101295    2.580804 O.3       1 <1>        -0.337745 
     42 O           4.036059    8.039307   -0.793169 O.3       1 <1>        -0.386033 
     43 C          -0.987791   -6.887785   -1.520807 C.3       1 <1>        -0.059017 
     44 C           1.213443   -3.898429   -0.351250 C.3       1 <1>        -0.058491 
     45 O           2.984621    8.158322    1.887702 O.3       1 <1>        -0.386378 
     46 O          -2.118880    2.614475    4.247605 O.3       1 <1>        -0.386033 
     47 O           0.508326    6.352754    5.584961 O.3       1 <1>        -0.384104 
     48 O          -2.121985    5.310472    5.947893 O.3       1 <1>        -0.386388 
     49 C          -1.761963    3.237634    1.458403 C.2       1 <1>         0.291467 
     50 O          -2.349976    2.204517    1.739841 O.2       1 <1>        -0.262180 
     51 O          -1.529457    3.590654    0.189480 O.3       1 <1>        -0.329249 
     52 C          -3.468211   -5.915832   -5.288860 C.2       1 <1>         0.265560 
     53 O          -3.462004   -7.110292   -5.541222 O.2       1 <1>        -0.264567 
     54 O          -2.831699   -5.033831   -6.064152 O.3       1 <1>        -0.330857 
     55 C           4.766527    5.441948   -1.795899 C.2       1 <1>         0.291467 
     56 O           4.637164    5.454272   -3.010046 O.2       1 <1>        -0.262180 
     57 O           5.951963    5.243909   -1.211012 O.3       1 <1>        -0.329249 
     58 H          -5.199095   -7.198310   -3.545599 H         1 <1>         0.027550 
     59 H          -5.201972   -5.986862   -2.254935 H         1 <1>         0.027550 
     60 H          -3.644509   -7.839336   -1.684676 H         1 <1>         0.027098 
     61 H          -2.829236   -7.651345   -3.239562 H         1 <1>         0.027098 
     62 H          -1.448198   -5.328228   -3.569808 H         1 <1>         0.035135 
     63 H          -3.013877   -3.496823   -4.076984 H         1 <1>         0.028121 
     64 H          -3.922780   -3.803129   -2.602277 H         1 <1>         0.028121 
     65 H          -3.087429   -6.391084    0.248754 H         1 <1>         0.027096 
     66 H          -3.833093   -5.041651   -0.585141 H         1 <1>         0.027096 
     67 H          -2.327127   -4.196113    1.170613 H         1 <1>         0.027392 
     68 H          -1.046352   -5.240837    0.620662 H         1 <1>         0.027392 
     69 H          -0.501252   -0.929535   -0.772045 H         1 <1>         0.031460 
     70 H           0.011602   -0.942202   -3.012202 H         1 <1>         0.031042 
     71 H           1.396437   -2.016974   -2.853386 H         1 <1>         0.031042 
     72 H          -0.368472   -3.251416   -3.974791 H         1 <1>         0.057198 
     73 H           0.048429   -3.498701    1.983127 H         1 <1>         0.027096 
     74 H          -0.922349   -2.063953    1.695834 H         1 <1>         0.027096 
     75 H           2.107829   -2.166308    1.963915 H         1 <1>         0.026846 
     76 H           0.894164   -1.448695    2.995024 H         1 <1>         0.026846 
     77 H           0.172900    0.064883    1.158805 H         1 <1>         0.031210 
     78 H           0.707570    2.375676    0.905048 H         1 <1>         0.060224 
     79 H           1.979273    2.830547   -1.148077 H         1 <1>         0.029047 
     80 H           3.311011    1.823060   -0.595043 H         1 <1>         0.029047 
     81 H           1.764138    0.632383   -2.204353 H         1 <1>         0.027149 
     82 H           0.377927    1.108816   -1.208323 H         1 <1>         0.027149 
     83 H           2.702760    5.833844   -1.489642 H         1 <1>         0.072940 
     84 H           4.788047    6.686653    0.623562 H         1 <1>         0.065129 
     85 H           1.788131    7.308838    0.405111 H         1 <1>         0.064781 
     86 H           3.281016    5.596041    2.477027 H         1 <1>         0.067477 
     87 H           1.310892    4.670674    0.338741 H         1 <1>         0.093773 
     88 H          -0.593725    3.933392    5.560245 H         1 <1>         0.064771 
     89 H          -2.988768    4.456055    3.805040 H         1 <1>         0.065129 
     90 H          -1.448185    5.205403    2.097906 H         1 <1>         0.072940 
     91 H           1.603926    4.644893    4.052840 H         1 <1>         0.093767 
     92 H          -0.804603    6.533097    3.984510 H         1 <1>         0.067096 
     93 H          -2.503239   -1.702885   -1.535766 H         1 <1>         0.023829 
     94 H          -3.510773   -2.791746   -0.606222 H         1 <1>         0.023829 
     95 H          -2.502785   -1.671308    0.230257 H         1 <1>         0.023829 
     96 H          -5.215650   -3.847066   -5.347028 H         1 <1>         0.023986 
     97 H          -6.108660   -5.381396   -5.161577 H         1 <1>         0.023986 
     98 H          -6.068567   -4.204142   -3.821536 H         1 <1>         0.023986 
     99 H           3.685752   -0.392580   -0.992838 H         1 <1>         0.023525 
    100 H           3.443281   -1.576351    0.273281 H         1 <1>         0.023525 
    101 H           3.026483   -1.936780   -1.388376 H         1 <1>         0.023525 
    102 H           1.806297    2.137638    3.640990 H         1 <1>         0.023587 
    103 H           0.288932    1.340292    3.181471 H         1 <1>         0.023587 
    104 H           1.601070    0.432936    3.972377 H         1 <1>         0.023587 
    105 H           3.631986   -0.296566    2.664396 H         1 <1>         0.023587 
    106 H           4.094445    0.516055    1.153811 H         1 <1>         0.023587 
    107 H           3.948856    1.451913    2.629521 H         1 <1>         0.023587 
    108 H           4.185359    8.824208   -0.272451 H         1 <1>         0.210020 
    109 H          -0.681867   -7.476680   -2.397589 H         1 <1>         0.023525 
    110 H          -1.100927   -7.579743   -0.672038 H         1 <1>         0.023525 
    111 H          -0.152523   -6.210671   -1.313305 H         1 <1>         0.023525 
    112 H           1.066395   -4.843337    0.181198 H         1 <1>         0.023542 
    113 H           2.164927   -3.536324    0.040762 H         1 <1>         0.023542 
    114 H           1.367070   -4.138912   -1.411979 H         1 <1>         0.023542 
    115 H           2.278716    8.314543    2.509584 H         1 <1>         0.210005 
    116 H          -2.607024    2.094674    3.613841 H         1 <1>         0.210020 
    117 H           1.111932    7.032400    5.297574 H         1 <1>         0.210110 
    118 H          -1.676779    5.748139    6.668108 H         1 <1>         0.210005 
    119 H          -1.873685    2.951480   -0.425621 H         1 <1>         0.220293 
    120 H          -2.387759   -5.456097   -6.790810 H         1 <1>         0.220226 
    121 H           6.644501    5.116130   -1.850391 H         1 <1>         0.220293 
@<TRIPOS>BOND
     1    2    1 1    
     2    6    1 1    
     3    1   58 1    
     4    1   59 1    
     5    3    2 1    
     6    2   60 1    
     7    2   61 1    
     8    4    3 1    
     9    7    3 1    
    10    3   43 1    
    11    4    5 1    
    12   10    4 1    
    13    4   62 1    
    14    5    6 1    
    15    5   63 1    
    16    5   64 1    
    17    6   36 1    
    18    6   52 1    
    19    8    7 1    
    20    7   65 1    
    21    7   66 1    
    22    9    8 1    
    23    8   67 1    
    24    8   68 1    
    25    9   10 1    
    26   11    9 1    
    27    9   35 1    
    28   14   10 2    
    29   12   11 1    
    30   15   11 1    
    31   11   44 1    
    32   12   13 1    
    33   18   12 1    
    34   12   69 1    
    35   13   14 1    
    36   13   70 1    
    37   13   71 1    
    38   14   72 1    
    39   16   15 1    
    40   15   73 1    
    41   15   74 1    
    42   17   16 1    
    43   16   75 1    
    44   16   76 1    
    45   17   18 1    
    46   19   17 1    
    47   17   77 1    
    48   22   18 1    
    49   18   37 1    
    50   20   19 1    
    51   19   38 1    
    52   19   39 1    
    53   20   21 1    
    54   40   20 1    
    55   20   78 1    
    56   21   22 1    
    57   21   79 1    
    58   21   80 1    
    59   22   81 1    
    60   22   82 1    
    61   23   24 1    
    62   28   23 1    
    63   25   24 1    
    64   24   55 1    
    65   24   83 1    
    66   26   25 1    
    67   25   42 1    
    68   25   84 1    
    69   27   26 1    
    70   26   45 1    
    71   26   85 1    
    72   27   28 1    
    73   41   27 1    
    74   27   86 1    
    75   28   40 1    
    76   28   87 1    
    77   29   30 1    
    78   34   29 1    
    79   29   48 1    
    80   29   88 1    
    81   31   30 1    
    82   30   46 1    
    83   30   89 1    
    84   32   31 1    
    85   31   49 1    
    86   31   90 1    
    87   33   32 1    
    88   33   34 1    
    89   33   41 1    
    90   33   91 1    
    91   34   47 1    
    92   34   92 1    
    93   35   93 1    
    94   35   94 1    
    95   35   95 1    
    96   36   96 1    
    97   36   97 1    
    98   36   98 1    
    99   37   99 1    
   100   37  100 1    
   101   37  101 1    
   102   38  102 1    
   103   38  103 1    
   104   38  104 1    
   105   39  105 1    
   106   39  106 1    
   107   39  107 1    
   108   42  108 1    
   109   43  109 1    
   110   43  110 1    
   111   43  111 1    
   112   44  112 1    
   113   44  113 1    
   114   44  114 1    
   115   45  115 1    
   116   46  116 1    
   117   47  117 1    
   118   48  118 1    
   119   49   50 2    
   120   49   51 1    
   121   51  119 1    
   122   52   53 2    
   123   52   54 1    
   124   54  120 1    
   125   55   56 2    
   126   55   57 1    
   127   57  121 1    
@<TRIPOS>SUBSTRUCTURE
     1 ****       29 TEMP              0 ****  ****    0 ROOT 
@<TRIPOS>NORMAL
@<TRIPOS>FF_PBC
FORCE_FIELD_SETUP_FEATURE Force Field Setup information
v1.0  0 0.000000 0.000000 0.000000 0.000000 0.000000 0.000000 NONE 0 0 0 0 1 0 0 0 0 0 0 0 0
