@<TRIPOS>MOLECULE
MOL002289
   33    35     1     1     0
SMALL
GASTEIGER


@<TRIPOS>ATOM
      1 C          -4.069568   -0.130363   -0.194231 C.ar      1 <1>        -0.028282 
      2 C          -3.708886   -1.566941   -0.145063 C.ar      1 <1>        -0.047307 
      3 C          -2.353855   -1.936891   -0.076265 C.ar      1 <1>        -0.047151 
      4 C          -1.291548   -0.901978   -0.047533 C.ar      1 <1>         0.035808 
      5 C          -1.638158    0.474182   -0.093852 C.ar      1 <1>         0.062824 
      6 C          -3.068181    0.868809   -0.170048 C.ar      1 <1>         0.084321 
      7 C          -0.552269    1.528367   -0.064367 C.2       1 <1>         0.199438 
      8 C           0.156901   -1.329350    0.033216 C.2       1 <1>         0.194684 
      9 C           0.905590    1.139507    0.031548 C.ar      1 <1>         0.062826 
     10 C           1.260136   -0.297230    0.078921 C.ar      1 <1>         0.035888 
     11 O          -0.828250    2.715941   -0.116352 O.2       1 <1>        -0.286435 
     12 O           0.437338   -2.516598    0.063543 O.2       1 <1>        -0.286609 
     13 C           2.618024   -0.691089    0.167298 C.ar      1 <1>        -0.044711 
     14 C           3.696278    0.326308    0.215034 C.ar      1 <1>        -0.019046 
     15 C           3.358369    1.691199    0.172590 C.ar      1 <1>        -0.025843 
     16 C           1.945130    2.125132    0.078176 C.ar      1 <1>         0.084402 
     17 O           1.663353    3.494234    0.037916 O.3       1 <1>        -0.359093 
     18 O          -3.409187    2.223242   -0.216899 O.3       1 <1>        -0.359094 
     19 C          -4.824504   -2.617123   -0.169714 C.3       1 <1>        -0.039609 
     20 C           5.158502   -0.124823    0.311521 C.3       1 <1>         0.069330 
     21 O           6.041245    0.898068   -0.184024 O.3       1 <1>        -0.390415 
     22 H          -5.116832    0.145470   -0.250089 H         1 <1>         0.064604 
     23 H          -2.078493   -2.985802   -0.043161 H         1 <1>         0.062744 
     24 H           2.874007   -1.744943    0.202181 H         1 <1>         0.062826 
     25 H           4.131578    2.450340    0.209923 H         1 <1>         0.064686 
     26 H           0.735616    3.698946   -0.038377 H         1 <1>         0.217340 
     27 H          -4.342721    2.401391   -0.218379 H         1 <1>         0.217340 
     28 H          -4.440795   -3.631492    0.015584 H         1 <1>         0.027755 
     29 H          -5.567449   -2.376852    0.605494 H         1 <1>         0.027755 
     30 H          -5.313082   -2.596212   -1.155170 H         1 <1>         0.027755 
     31 H           5.371019   -0.344769    1.370562 H         1 <1>         0.060711 
     32 H           5.289448   -1.046748   -0.279399 H         1 <1>         0.060711 
     33 H           6.961641    0.657668   -0.130081 H         1 <1>         0.209847 
@<TRIPOS>BOND
     1    1    2 1    
     2    1    6 2    
     3    1   22 1    
     4    2    3 2    
     5    2   19 1    
     6    3    4 1    
     7    3   23 1    
     8    4    5 2    
     9    4    8 1    
    10    5    6 1    
    11    5    7 1    
    12    6   18 1    
    13    7    9 1    
    14    7   11 2    
    15    8   10 1    
    16    8   12 2    
    17    9   10 1    
    18    9   16 2    
    19   10   13 2    
    20   13   14 1    
    21   13   24 1    
    22   14   15 2    
    23   14   20 1    
    24   15   16 1    
    25   15   25 1    
    26   16   17 1    
    27   17   26 1    
    28   18   27 1    
    29   19   28 1    
    30   19   29 1    
    31   19   30 1    
    32   20   21 1    
    33   20   31 1    
    34   20   32 1    
    35   21   33 1    
@<TRIPOS>SUBSTRUCTURE
     1 ****        1 TEMP              0 ****  ****    0 ROOT 
@<TRIPOS>NORMAL
@<TRIPOS>FF_PBC
FORCE_FIELD_SETUP_FEATURE Force Field Setup information
v1.0  0 0.000000 0.000000 0.000000 0.000000 0.000000 0.000000 NONE 0 0 0 0 1 0 0 0 0 0 0 0 0
