@<TRIPOS>MOLECULE
MOL004610
   33    33     1     1     0
SMALL
GASTEIGER


@<TRIPOS>ATOM
      1 O          -4.357700    0.765296    0.054969 O.3       1 <1>        -0.311865 
      2 O          -6.440292    0.611720    0.886996 O.2       1 <1>        -0.264965 
      3 C          -3.212153   -0.100064    0.014230 C.3       1 <1>         0.068538 
      4 C          -1.905936    0.722728   -0.129983 C.3       1 <1>        -0.025996 
      5 C          -0.642056   -0.179291   -0.160715 C.3       1 <1>        -0.050699 
      6 C          -3.332420   -0.900984    1.330125 C.3       1 <1>        -0.017021 
      7 C           0.645695    0.663126   -0.373393 C.3       1 <1>        -0.052977 
      8 C           1.913315   -0.234589   -0.395820 C.3       1 <1>        -0.053064 
      9 C          -4.857733   -1.126202    1.391355 C.3       1 <1>         0.035560 
     10 C           3.201235    0.609042   -0.602539 C.3       1 <1>        -0.053306 
     11 C          -5.315930    0.156970    0.759744 C.2       1 <1>         0.262499 
     12 C           4.468593   -0.288456   -0.624551 C.3       1 <1>        -0.055911 
     13 C           5.753995    0.555756   -0.826245 C.3       1 <1>        -0.065276 
     14 H          -3.327439   -0.786289   -0.843789 H         1 <1>         0.060203 
     15 H          -1.969953    1.300808   -1.066198 H         1 <1>         0.029027 
     16 H          -1.837279    1.436834    0.706300 H         1 <1>         0.029027 
     17 H          -0.556851   -0.728416    0.790669 H         1 <1>         0.026608 
     18 H          -0.737373   -0.913076   -0.977838 H         1 <1>         0.026608 
     19 H          -2.761492   -1.843417    1.333082 H         1 <1>         0.029507 
     20 H          -3.011565   -0.274627    2.179155 H         1 <1>         0.029507 
     21 H           0.570976    1.209940   -1.327875 H         1 <1>         0.026529 
     22 H           0.735965    1.401000    0.440765 H         1 <1>         0.026529 
     23 H           1.988050   -0.783885    0.557053 H         1 <1>         0.026528 
     24 H           1.824544   -0.970099   -1.212374 H         1 <1>         0.026528 
     25 H          -5.231128   -1.256961    2.419018 H         1 <1>         0.036689 
     26 H          -5.176119   -1.972911    0.763175 H         1 <1>         0.036689 
     27 H           3.128824    1.158990   -1.555363 H         1 <1>         0.026520 
     28 H           3.290867    1.344025    0.214275 H         1 <1>         0.026520 
     29 H           4.546640   -0.840822    0.326788 H         1 <1>         0.026265 
     30 H           4.387335   -1.022342   -1.443773 H         1 <1>         0.026265 
     31 H           6.639746   -0.099036   -0.838387 H         1 <1>         0.022978 
     32 H           5.709320    1.101884   -1.781420 H         1 <1>         0.022978 
     33 H           5.868114    1.283549   -0.007740 H         1 <1>         0.022978 
@<TRIPOS>BOND
     1    1    3 1    
     2    1   11 1    
     3   11    2 2    
     4    3    4 1    
     5    3    6 1    
     6    3   14 1    
     7    4    5 1    
     8    4   15 1    
     9    4   16 1    
    10    5    7 1    
    11    5   17 1    
    12    5   18 1    
    13    6    9 1    
    14    6   19 1    
    15    6   20 1    
    16    7    8 1    
    17    7   21 1    
    18    7   22 1    
    19    8   10 1    
    20    8   23 1    
    21    8   24 1    
    22    9   11 1    
    23    9   25 1    
    24    9   26 1    
    25   10   12 1    
    26   10   27 1    
    27   10   28 1    
    28   12   13 1    
    29   12   29 1    
    30   12   30 1    
    31   13   31 1    
    32   13   32 1    
    33   13   33 1    
@<TRIPOS>SUBSTRUCTURE
     1 ****        1 TEMP              0 ****  ****    0 ROOT 
@<TRIPOS>NORMAL
@<TRIPOS>FF_PBC
FORCE_FIELD_SETUP_FEATURE Force Field Setup information
v1.0  0 0.000000 0.000000 0.000000 0.000000 0.000000 0.000000 NONE 0 0 0 0 1 0 0 0 0 0 0 0 0
