@<TRIPOS>MOLECULE
MOL001803
   47    49     1     1     0
SMALL
GASTEIGER


@<TRIPOS>ATOM
      1 C          -0.522409    2.402144    0.040775 C.ar      1 <1>         0.084737 
      2 C          -1.508950    3.508335    0.049840 C.ar      1 <1>         0.121496 
      3 C          -0.920721    1.079484    0.009352 C.ar      1 <1>         0.098988 
      4 C           0.964454    2.650981    0.065106 C.2       1 <1>         0.193602 
      5 C          -2.940197    3.193318    0.024979 C.ar      1 <1>         0.136513 
      6 O          -1.021024    4.824311    0.082236 O.3       1 <1>        -0.344469 
      7 O           0.019286    0.042915    0.001001 O.3       1 <1>        -0.307708 
      8 C          -2.359544    0.742134   -0.016039 C.ar      1 <1>         0.002263 
      9 C           1.850486    1.482213    0.053485 C.2       1 <1>         0.016921 
     10 O           1.438797    3.774717    0.093584 O.2       1 <1>        -0.287016 
     11 C          -3.360861    1.761001   -0.008853 C.ar      1 <1>         0.110703 
     12 O          -3.878295    4.239736    0.033486 O.3       1 <1>        -0.342934 
     13 C          -1.862130    5.987415    0.094064 C.3       1 <1>         0.043165 
     14 C           1.348288    0.239112    0.022223 C.2       1 <1>         0.093945 
     15 O          -4.723995    1.429172   -0.033117 O.3       1 <1>        -0.345170 
     16 C          -5.299457    4.038704    0.011010 C.3       1 <1>         0.043243 
     17 C           2.208189   -1.013150    0.008544 C.ar      1 <1>         0.008192 
     18 C          -5.199605    0.073898   -0.065556 C.3       1 <1>         0.043138 
     19 C           1.520097   -2.328681   -0.025813 C.ar      1 <1>        -0.019515 
     20 C           3.633430   -1.017615    0.026328 C.ar      1 <1>        -0.049511 
     21 C           2.216602   -3.551550   -0.040985 C.ar      1 <1>         0.106288 
     22 C           4.385568   -2.293989    0.010852 C.ar      1 <1>        -0.028512 
     23 C           3.707584   -3.551060   -0.022229 C.ar      1 <1>         0.105689 
     24 O           1.456148   -4.731636   -0.073641 O.3       1 <1>        -0.345322 
     25 O           4.418412   -4.761368   -0.036932 O.3       1 <1>        -0.345341 
     26 C           2.051944   -6.037756   -0.091888 C.3       1 <1>         0.043136 
     27 C           5.853831   -4.819713   -0.019795 C.3       1 <1>         0.043135 
     28 H          -2.618177   -0.307992   -0.040214 H         1 <1>         0.067039 
     29 H           2.910266    1.717198    0.072031 H         1 <1>         0.068219 
     30 H          -1.204077    6.868065    0.119988 H         1 <1>         0.052871 
     31 H          -2.475378    6.044326   -0.818115 H         1 <1>         0.052871 
     32 H          -2.499088    6.008787    0.991398 H         1 <1>         0.052871 
     33 H          -5.772607    5.031305    0.024493 H         1 <1>         0.052872 
     34 H          -5.613760    3.522113   -0.908636 H         1 <1>         0.052872 
     35 H          -5.637314    3.486305    0.901016 H         1 <1>         0.052872 
     36 H          -6.298929    0.108465   -0.079052 H         1 <1>         0.052871 
     37 H          -4.882500   -0.479755    0.831506 H         1 <1>         0.052871 
     38 H          -4.859238   -0.444704   -0.974956 H         1 <1>         0.052871 
     39 H           0.436702   -2.368737   -0.040196 H         1 <1>         0.065082 
     40 H           4.208452   -0.102191    0.051386 H         1 <1>         0.062505 
     41 H           5.466622   -2.239662    0.025507 H         1 <1>         0.064430 
     42 H           1.235911   -6.774513   -0.116633 H         1 <1>         0.052871 
     43 H           2.647027   -6.215075    0.816893 H         1 <1>         0.052871 
     44 H           2.669720   -6.179456   -0.991736 H         1 <1>         0.052871 
     45 H           6.144226   -5.880379   -0.036830 H         1 <1>         0.052871 
     46 H           6.280947   -4.330258   -0.908506 H         1 <1>         0.052871 
     47 H           6.257935   -4.365564    0.897947 H         1 <1>         0.052871 
@<TRIPOS>BOND
     1    1    2 1    
     2    1    3 2    
     3    1    4 1    
     4    2    5 2    
     5    2    6 1    
     6    3    7 1    
     7    3    8 1    
     8    4    9 1    
     9    4   10 2    
    10    5   11 1    
    11    5   12 1    
    12    6   13 1    
    13    7   14 1    
    14    8   11 2    
    15    8   28 1    
    16    9   14 2    
    17    9   29 1    
    18   11   15 1    
    19   12   16 1    
    20   13   30 1    
    21   13   31 1    
    22   13   32 1    
    23   14   17 1    
    24   15   18 1    
    25   16   33 1    
    26   16   34 1    
    27   16   35 1    
    28   17   19 1    
    29   17   20 2    
    30   18   36 1    
    31   18   37 1    
    32   18   38 1    
    33   19   21 2    
    34   19   39 1    
    35   20   22 1    
    36   20   40 1    
    37   21   23 1    
    38   21   24 1    
    39   22   23 2    
    40   22   41 1    
    41   23   25 1    
    42   24   26 1    
    43   25   27 1    
    44   26   42 1    
    45   26   43 1    
    46   26   44 1    
    47   27   45 1    
    48   27   46 1    
    49   27   47 1    
@<TRIPOS>SUBSTRUCTURE
     1 ****        1 TEMP              0 ****  ****    0 ROOT 
@<TRIPOS>NORMAL
@<TRIPOS>FF_PBC
FORCE_FIELD_SETUP_FEATURE Force Field Setup information
v1.0  0 0.000000 0.000000 0.000000 0.000000 0.000000 0.000000 NONE 0 0 0 0 1 0 0 0 0 0 0 0 0
