@<TRIPOS>MOLECULE
MOL004825
   58    59     1     1     0
SMALL
GASTEIGER


@<TRIPOS>ATOM
      1 O           6.287105    0.139165   -0.105340 O.3       1 <1>        -0.359468 
      2 O          -5.879240    0.313574    1.156579 O.3       1 <1>        -0.359551 
      3 O           3.925840    4.097947   -1.856046 O.3       1 <1>        -0.359040 
      4 O          -0.975036    4.579718    0.474917 O.3       1 <1>        -0.359124 
      5 O           1.466095    4.478500   -0.838755 O.2       1 <1>        -0.287106 
      6 C           3.906019    0.500058    0.510059 C.ar      1 <1>        -0.013101 
      7 C          -3.967499    0.773776   -0.262937 C.ar      1 <1>        -0.013300 
      8 C           3.914359   -0.756946    1.388974 C.3       1 <1>        -0.006789 
      9 C          -4.449171   -0.300551   -1.244563 C.3       1 <1>        -0.006792 
     10 C           2.705458    2.504242   -0.433622 C.ar      1 <1>         0.051829 
     11 C           2.732438    1.268750    0.390188 C.ar      1 <1>        -0.042535 
     12 C          -2.264925    2.506834    0.385096 C.ar      1 <1>         0.005246 
     13 C          -2.723290    1.539961   -0.531560 C.ar      1 <1>        -0.046216 
     14 C           5.134946    0.923963   -0.205448 C.ar      1 <1>         0.078512 
     15 C          -4.710121    1.035155    0.907729 C.ar      1 <1>         0.076073 
     16 C           3.888720    2.929099   -1.089165 C.ar      1 <1>         0.085817 
     17 C           5.120086    2.115214   -0.970838 C.ar      1 <1>        -0.001192 
     18 C           3.509553   -1.971373    0.587598 C.2       1 <1>        -0.080898 
     19 C          -0.980936    3.275806    0.163265 C.2       1 <1>         0.083353 
     20 C           1.419335    3.291682   -0.551385 C.2       1 <1>         0.190989 
     21 C          -3.057173    2.784230    1.606249 C.ar      1 <1>        -0.049688 
     22 C          -4.122224   -1.656394   -0.663645 C.2       1 <1>        -0.080898 
     23 C          -4.239240    2.071253    1.861271 C.ar      1 <1>        -0.031026 
     24 C           0.111464    2.654195   -0.310403 C.2       1 <1>         0.016060 
     25 C           2.416038   -2.726685    0.791348 C.2       1 <1>        -0.079307 
     26 C          -3.113220   -2.462301   -1.036853 C.2       1 <1>        -0.079307 
     27 C           2.150988   -3.960833   -0.045972 C.3       1 <1>        -0.044040 
     28 C           1.380669   -2.429940    1.854461 C.3       1 <1>        -0.044040 
     29 C          -2.916343   -3.815056   -0.385976 C.3       1 <1>        -0.044040 
     30 C          -2.105452   -2.112664   -2.109683 C.3       1 <1>        -0.044040 
     31 H           4.934954   -0.921547    1.765767 H         1 <1>         0.035640 
     32 H           3.282811   -0.585339    2.270633 H         1 <1>         0.035640 
     33 H          -5.540408   -0.215709   -1.368137 H         1 <1>         0.035640 
     34 H          -4.012214   -0.140508   -2.239278 H         1 <1>         0.035640 
     35 H           1.842524    0.953053    0.921227 H         1 <1>         0.062901 
     36 H          -2.166338    1.352243   -1.442428 H         1 <1>         0.062784 
     37 H           4.198674   -2.235642   -0.215970 H         1 <1>         0.057472 
     38 H           6.010921    2.453187   -1.487998 H         1 <1>         0.066930 
     39 H          -2.715771    3.540058    2.306146 H         1 <1>         0.062503 
     40 H          -4.788867   -1.982889    0.136068 H         1 <1>         0.057472 
     41 H          -4.806410    2.280207    2.762446 H         1 <1>         0.064348 
     42 H           0.054395    1.589798   -0.529545 H         1 <1>         0.068194 
     43 H           1.975732   -4.822635    0.618124 H         1 <1>         0.027427 
     44 H           1.251403   -3.800783   -0.661317 H         1 <1>         0.027427 
     45 H           2.988298   -4.216515   -0.714060 H         1 <1>         0.027427 
     46 H           0.461814   -3.010260    1.682785 H         1 <1>         0.027427 
     47 H           1.781858   -2.703779    2.840809 H         1 <1>         0.027427 
     48 H           1.096275   -1.368411    1.856926 H         1 <1>         0.027427 
     49 H          -2.823236   -4.589804   -1.163672 H         1 <1>         0.027427 
     50 H          -1.989608   -3.798231    0.208363 H         1 <1>         0.027427 
     51 H          -3.748210   -4.099317    0.277459 H         1 <1>         0.027427 
     52 H          -1.157171   -2.643361   -1.938212 H         1 <1>         0.027427 
     53 H          -2.503261   -2.420579   -3.087806 H         1 <1>         0.027427 
     54 H          -1.869564   -1.040997   -2.134420 H         1 <1>         0.027427 
     55 H           7.039591    0.479082   -0.574348 H         1 <1>         0.217326 
     56 H          -6.376627    0.636613    1.899099 H         1 <1>         0.217325 
     57 H           3.176874    4.672468   -1.724647 H         1 <1>         0.217341 
     58 H          -0.165185    5.049923    0.299938 H         1 <1>         0.217340 
@<TRIPOS>BOND
     1   14    1 1    
     2    1   55 1    
     3   15    2 1    
     4    2   56 1    
     5   16    3 1    
     6    3   57 1    
     7   19    4 1    
     8    4   58 1    
     9   20    5 2    
    10    6    8 1    
    11   11    6 2    
    12    6   14 1    
    13    7    9 1    
    14   13    7 1    
    15    7   15 2    
    16    8   18 1    
    17    8   31 1    
    18    8   32 1    
    19    9   22 1    
    20    9   33 1    
    21    9   34 1    
    22   10   11 1    
    23   10   16 2    
    24   20   10 1    
    25   11   35 1    
    26   12   13 2    
    27   19   12 1    
    28   12   21 1    
    29   13   36 1    
    30   17   14 2    
    31   15   23 1    
    32   16   17 1    
    33   17   38 1    
    34   18   25 2    
    35   18   37 1    
    36   24   19 2    
    37   20   24 1    
    38   21   23 2    
    39   21   39 1    
    40   22   26 2    
    41   22   40 1    
    42   23   41 1    
    43   24   42 1    
    44   25   27 1    
    45   25   28 1    
    46   26   29 1    
    47   26   30 1    
    48   27   43 1    
    49   27   44 1    
    50   27   45 1    
    51   28   46 1    
    52   28   47 1    
    53   28   48 1    
    54   29   49 1    
    55   29   50 1    
    56   29   51 1    
    57   30   52 1    
    58   30   53 1    
    59   30   54 1    
@<TRIPOS>SUBSTRUCTURE
     1 ****        6 TEMP              0 ****  ****    0 ROOT 
@<TRIPOS>NORMAL
@<TRIPOS>FF_PBC
FORCE_FIELD_SETUP_FEATURE Force Field Setup information
v1.0  0 0.000000 0.000000 0.000000 0.000000 0.000000 0.000000 NONE 0 0 0 0 1 0 0 0 0 0 0 0 0
