@<TRIPOS>MOLECULE
MOL004255
   41    41     1     1     0
SMALL
GASTEIGER


@<TRIPOS>ATOM
      1 C           0.142908    1.112785    0.780658 C.3       1 <1>         0.015840 
      2 C          -1.324891    1.259195    0.258012 C.3       1 <1>         0.026793 
      3 C          -2.189627    0.046967    0.572463 C.2       1 <1>         0.140996 
      4 C          -1.975052   -1.262920   -0.153108 C.3       1 <1>         0.027007 
      5 C          -0.753985   -1.960710    0.402660 C.2       1 <1>        -0.069447 
      6 C           1.136154    0.349443   -0.069541 C.2       1 <1>         0.136835 
      7 C           0.289976   -2.248388   -0.390594 C.2       1 <1>        -0.084605 
      8 C           1.616284   -2.798719    0.070996 C.3       1 <1>        -0.033878 
      9 C           2.691919   -1.688009   -0.106691 C.3       1 <1>        -0.040321 
     10 C           2.299212   -0.356889    0.608033 C.3       1 <1>         0.014986 
     11 C          -1.498776    1.778415   -1.207345 C.3       1 <1>        -0.036801 
     12 O           1.035421    0.319572   -1.284360 O.2       1 <1>        -0.297104 
     13 C          -0.788079   -2.289259    1.880342 C.3       1 <1>        -0.043386 
     14 O          -3.063938    0.123336    1.422065 O.2       1 <1>        -0.296759 
     15 C          -3.003947    2.020938   -1.522689 C.3       1 <1>        -0.062015 
     16 C          -0.701889    3.090337   -1.460412 C.3       1 <1>        -0.062015 
     17 C           3.494838    0.633286    0.621270 C.3       1 <1>        -0.055690 
     18 H           0.586079    2.114058    0.898286 H         1 <1>         0.034850 
     19 H           0.084294    0.678339    1.789858 H         1 <1>         0.034850 
     20 H          -1.754571    2.060486    0.885648 H         1 <1>         0.038397 
     21 H          -1.915804   -1.088062   -1.235842 H         1 <1>         0.038678 
     22 H          -2.845073   -1.917033    0.012988 H         1 <1>         0.038678 
     23 H           0.223641   -2.048612   -1.461129 H         1 <1>         0.057165 
     24 H           1.876077   -3.680636   -0.537102 H         1 <1>         0.030759 
     25 H           1.605159   -3.115216    1.124182 H         1 <1>         0.030759 
     26 H           3.641171   -2.066478    0.308158 H         1 <1>         0.027480 
     27 H           2.853984   -1.492649   -1.179427 H         1 <1>         0.027480 
     28 H           2.063665   -0.600079    1.656381 H         1 <1>         0.037464 
     29 H          -1.144480    1.029011   -1.931339 H         1 <1>         0.030227 
     30 H          -0.635024   -3.369946    2.019240 H         1 <1>         0.027446 
     31 H          -1.756453   -2.035767    2.336936 H         1 <1>         0.027446 
     32 H          -0.005919   -1.743771    2.425348 H         1 <1>         0.027446 
     33 H          -3.588715    1.095198   -1.409972 H         1 <1>         0.023252 
     34 H          -3.130549    2.372214   -2.558751 H         1 <1>         0.023252 
     35 H          -3.423024    2.781935   -0.846587 H         1 <1>         0.023252 
     36 H           0.381702    2.923088   -1.372140 H         1 <1>         0.023252 
     37 H          -0.894767    3.466620   -2.477102 H         1 <1>         0.023252 
     38 H          -0.999530    3.868396   -0.741010 H         1 <1>         0.023252 
     39 H           3.220776    1.561047    1.147916 H         1 <1>         0.023641 
     40 H           3.787314    0.888380   -0.409255 H         1 <1>         0.023641 
     41 H           4.363415    0.190202    1.133253 H         1 <1>         0.023641 
@<TRIPOS>BOND
     1    1    2 1    
     2    1    6 1    
     3    1   18 1    
     4    1   19 1    
     5    2    3 1    
     6    2   11 1    
     7    2   20 1    
     8    3    4 1    
     9    3   14 2    
    10    4    5 1    
    11    4   21 1    
    12    4   22 1    
    13    5    7 2    
    14    5   13 1    
    15    6   10 1    
    16    6   12 2    
    17    7    8 1    
    18    7   23 1    
    19    8    9 1    
    20    8   24 1    
    21    8   25 1    
    22    9   10 1    
    23    9   26 1    
    24    9   27 1    
    25   10   17 1    
    26   10   28 1    
    27   11   15 1    
    28   11   16 1    
    29   11   29 1    
    30   13   30 1    
    31   13   31 1    
    32   13   32 1    
    33   15   33 1    
    34   15   34 1    
    35   15   35 1    
    36   16   36 1    
    37   16   37 1    
    38   16   38 1    
    39   17   39 1    
    40   17   40 1    
    41   17   41 1    
@<TRIPOS>SUBSTRUCTURE
     1 ****        1 TEMP              0 ****  ****    0 ROOT 
@<TRIPOS>NORMAL
@<TRIPOS>FF_PBC
FORCE_FIELD_SETUP_FEATURE Force Field Setup information
v1.0  0 0.000000 0.000000 0.000000 0.000000 0.000000 0.000000 NONE 0 0 0 0 1 0 0 0 0 0 0 0 0
