@<TRIPOS>MOLECULE
MOL000449
   78    81     1     1     0
SMALL
GASTEIGER


@<TRIPOS>ATOM
      1 C          -5.893512   -3.010867   -3.754467 C.3       1 <1>         0.058951 
      2 C          -4.992630   -1.996191   -4.486828 C.3       1 <1>        -0.025766 
      3 C          -4.534383   -0.890833   -3.498774 C.3       1 <1>        -0.041314 
      4 C          -5.030018   -3.744250   -2.689431 C.3       1 <1>        -0.005079 
      5 C          -3.813452   -2.964330   -2.208410 C.2       1 <1>        -0.064841 
      6 C          -2.711906   -3.640928   -1.846392 C.2       1 <1>        -0.083874 
      7 C          -1.439471   -3.008835   -1.352185 C.3       1 <1>        -0.031102 
      8 C          -1.663661   -1.555705   -0.861425 C.3       1 <1>        -0.030653 
      9 C          -0.297548   -0.840899   -0.655054 C.3       1 <1>        -0.031963 
     10 C           0.678070   -1.465407    0.364002 C.3       1 <1>        -0.049151 
     11 C           1.675534   -0.307096    0.658083 C.3       1 <1>        -0.048906 
     12 C           1.106934    0.975360   -0.028343 C.3       1 <1>        -0.029351 
     13 C           1.521048    2.265974    0.751486 C.3       1 <1>        -0.022395 
     14 C           3.019373    2.270806    0.990924 C.2       1 <1>        -0.084547 
     15 C           3.563366    2.143908    2.211740 C.2       1 <1>        -0.084339 
     16 C           5.049460    2.218855    2.500617 C.3       1 <1>        -0.020812 
     17 C           5.340081    3.352139    3.538695 C.3       1 <1>        -0.049381 
     18 C           4.893956    3.089276    5.003429 C.3       1 <1>        -0.064738 
     19 C           5.681100    0.835555    2.869066 C.3       1 <1>        -0.040461 
     20 C           6.144361    0.079263    1.590047 C.3       1 <1>        -0.062133 
     21 C           4.722510   -0.096286    3.667539 C.3       1 <1>        -0.062133 
     22 C           1.167134    3.592462    0.024633 C.3       1 <1>        -0.058684 
     23 C          -0.414060    0.641536   -0.208039 C.3       1 <1>        -0.025605 
     24 C          -1.163167    0.843855    1.151332 C.3       1 <1>        -0.059029 
     25 C          -1.154688    1.371997   -1.370203 C.3       1 <1>        -0.046804 
     26 C          -2.558313    0.745928   -1.621584 C.3       1 <1>        -0.048644 
     27 C          -2.507017   -0.787654   -1.921829 C.3       1 <1>        -0.028547 
     28 C          -3.922106   -1.443013   -2.158728 C.3       1 <1>        -0.007820 
     29 C          -4.902338   -1.159614   -0.971088 C.3       1 <1>        -0.055578 
     30 O          -7.007702   -2.296611   -3.186388 O.3       1 <1>        -0.391474 
     31 H          -1.935689   -0.897028   -2.859246 H         1 <1>         0.031195 
     32 H          -2.194817   -1.618511    0.096581 H         1 <1>         0.030949 
     33 H           0.223650   -0.873480   -1.628953 H         1 <1>         0.030897 
     34 H          -6.295803   -3.731074   -4.492006 H         1 <1>         0.059621 
     35 H          -5.550762   -1.540049   -5.321556 H         1 <1>         0.029039 
     36 H          -4.116395   -2.519295   -4.906237 H         1 <1>         0.029039 
     37 H          -5.397254   -0.240223   -3.285694 H         1 <1>         0.027446 
     38 H          -3.821800   -0.274411   -4.069001 H         1 <1>         0.027446 
     39 H          -4.681305   -4.680063   -3.156489 H         1 <1>         0.033510 
     40 H          -5.650397   -4.029679   -1.826663 H         1 <1>         0.033510 
     41 H          -2.698491   -4.730711   -1.906580 H         1 <1>         0.057190 
     42 H          -1.023955   -3.615076   -0.529734 H         1 <1>         0.031025 
     43 H          -0.725648   -3.038514   -2.190506 H         1 <1>         0.031025 
     44 H           1.182977   -2.361684   -0.033513 H         1 <1>         0.026828 
     45 H           0.122236   -1.759353    1.268911 H         1 <1>         0.026828 
     46 H           1.756604   -0.174041    1.748055 H         1 <1>         0.026837 
     47 H           2.683916   -0.536648    0.272521 H         1 <1>         0.026837 
     48 H           1.563490    1.050255   -1.031316 H         1 <1>         0.031167 
     49 H           1.014620    2.288654    1.727468 H         1 <1>         0.034310 
     50 H           3.661730    2.394971    0.119246 H         1 <1>         0.057182 
     51 H           2.900488    1.989356    3.060911 H         1 <1>         0.057190 
     52 H           5.549668    2.576859    1.584403 H         1 <1>         0.034534 
     53 H           6.426162    3.550623    3.557427 H         1 <1>         0.026833 
     54 H           4.841944    4.273815    3.190508 H         1 <1>         0.026833 
     55 H           5.086402    3.990958    5.607379 H         1 <1>         0.022995 
     56 H           3.819719    2.865145    5.071285 H         1 <1>         0.022995 
     57 H           5.466349    2.263149    5.450680 H         1 <1>         0.022995 
     58 H           6.584333    1.015090    3.479766 H         1 <1>         0.030110 
     59 H           6.574784   -0.899324    1.853878 H         1 <1>         0.023251 
     60 H           6.913856    0.652514    1.049419 H         1 <1>         0.023251 
     61 H           5.291676   -0.083610    0.913599 H         1 <1>         0.023251 
     62 H           5.263009   -0.996162    4.000056 H         1 <1>         0.023251 
     63 H           4.303962    0.392990    4.556114 H         1 <1>         0.023251 
     64 H           3.885509   -0.422754    3.033578 H         1 <1>         0.023251 
     65 H           1.672873    4.437801    0.517322 H         1 <1>         0.023544 
     66 H           0.089487    3.795952    0.064928 H         1 <1>         0.023544 
     67 H           1.490617    3.561603   -1.026949 H         1 <1>         0.023544 
     68 H          -0.593959    0.451847    2.004656 H         1 <1>         0.023525 
     69 H          -1.323409    1.918920    1.320311 H         1 <1>         0.023525 
     70 H          -2.148374    0.369280    1.196346 H         1 <1>         0.023525 
     71 H          -1.291524    2.438243   -1.143299 H         1 <1>         0.027078 
     72 H          -0.568052    1.308527   -2.300996 H         1 <1>         0.027078 
     73 H          -3.027406    1.281740   -2.461672 H         1 <1>         0.026846 
     74 H          -3.171000    0.958643   -0.738962 H         1 <1>         0.026846 
     75 H          -5.853379   -1.692484   -1.095017 H         1 <1>         0.023820 
     76 H          -4.485374   -1.482356   -0.008142 H         1 <1>         0.023820 
     77 H          -5.166065   -0.095871   -0.891403 H         1 <1>         0.023820 
     78 H          -7.631803   -2.862204   -2.742234 H         1 <1>         0.209789 
@<TRIPOS>BOND
     1    1    2 1    
     2    1    4 1    
     3    1   30 1    
     4    1   34 1    
     5    2    3 1    
     6    2   35 1    
     7    2   36 1    
     8    3   28 1    
     9    3   37 1    
    10    3   38 1    
    11    4    5 1    
    12    4   39 1    
    13    4   40 1    
    14    5    6 2    
    15    5   28 1    
    16    6    7 1    
    17    6   41 1    
    18    7    8 1    
    19    7   42 1    
    20    7   43 1    
    21    8    9 1    
    22    8   27 1    
    23    8   32 1    
    24    9   10 1    
    25    9   23 1    
    26    9   33 1    
    27   10   11 1    
    28   10   44 1    
    29   10   45 1    
    30   11   12 1    
    31   11   46 1    
    32   11   47 1    
    33   12   13 1    
    34   12   23 1    
    35   12   48 1    
    36   13   14 1    
    37   13   22 1    
    38   13   49 1    
    39   14   15 2    
    40   14   50 1    
    41   15   16 1    
    42   15   51 1    
    43   16   17 1    
    44   16   19 1    
    45   16   52 1    
    46   17   18 1    
    47   17   53 1    
    48   17   54 1    
    49   18   55 1    
    50   18   56 1    
    51   18   57 1    
    52   19   20 1    
    53   19   21 1    
    54   19   58 1    
    55   20   59 1    
    56   20   60 1    
    57   20   61 1    
    58   21   62 1    
    59   21   63 1    
    60   21   64 1    
    61   22   65 1    
    62   22   66 1    
    63   22   67 1    
    64   23   24 1    
    65   23   25 1    
    66   24   68 1    
    67   24   69 1    
    68   24   70 1    
    69   25   26 1    
    70   25   71 1    
    71   25   72 1    
    72   26   27 1    
    73   26   73 1    
    74   26   74 1    
    75   27   28 1    
    76   27   31 1    
    77   28   29 1    
    78   29   75 1    
    79   29   76 1    
    80   29   77 1    
    81   30   78 1    
@<TRIPOS>SUBSTRUCTURE
     1 ****        1 TEMP              0 ****  ****    0 ROOT 
@<TRIPOS>NORMAL
@<TRIPOS>FF_PBC
FORCE_FIELD_SETUP_FEATURE Force Field Setup information
v1.0  0 0.000000 0.000000 0.000000 0.000000 0.000000 0.000000 NONE 0 0 0 0 1 0 0 0 0 0 0 0 0
