@<TRIPOS>MOLECULE
MOL004035
   45    45     1     1     0
SMALL
GASTEIGER


@<TRIPOS>ATOM
      1 C          -1.036414    0.541920    0.853670 C.3       1 <1>        -0.047619 
      2 C          -0.608851    1.293130    2.150561 C.3       1 <1>        -0.052572 
      3 C          -1.408662    0.786396    3.384435 C.3       1 <1>        -0.053289 
      4 C          -1.030683    1.569521    4.671686 C.3       1 <1>        -0.055911 
      5 C          -1.820933    1.049829    5.901138 C.3       1 <1>        -0.065276 
      6 C           1.236189    0.375263   -0.435722 C.3       1 <1>        -0.047361 
      7 C           1.366940   -1.171074   -0.535056 C.3       1 <1>        -0.049482 
      8 C           0.682351   -1.737248   -1.817161 C.3       1 <1>        -0.038670 
      9 C           1.418249   -1.385196   -3.163688 C.3       1 <1>        -0.043885 
     10 C           2.871776   -1.949399   -3.198315 C.3       1 <1>        -0.062414 
     11 C           0.654363   -1.927220   -4.409992 C.3       1 <1>        -0.062414 
     12 C          -0.813621   -1.302867   -1.755894 C.3       1 <1>        -0.049482 
     13 C          -0.957314    0.242721   -1.696191 C.3       1 <1>        -0.047361 
     14 C          -0.242306    0.882731   -0.459709 C.3       1 <1>        -0.032028 
     15 C          -0.231319    2.430502   -0.658828 C.3       1 <1>        -0.059560 
     16 H          -0.984314   -0.531063    1.074629 H         1 <1>         0.027052 
     17 H          -2.099795    0.783011    0.693129 H         1 <1>         0.027052 
     18 H          -0.803848    2.372069    2.048281 H         1 <1>         0.026545 
     19 H           0.461965    1.149734    2.356455 H         1 <1>         0.026545 
     20 H          -1.199731   -0.284738    3.541856 H         1 <1>         0.026520 
     21 H          -2.488879    0.902996    3.196260 H         1 <1>         0.026520 
     22 H          -1.251678    2.640645    4.529297 H         1 <1>         0.026265 
     23 H           0.049599    1.463106    4.866797 H         1 <1>         0.026265 
     24 H          -1.543199    1.622645    6.800135 H         1 <1>         0.022978 
     25 H          -1.596874   -0.013360    6.080399 H         1 <1>         0.022978 
     26 H          -2.904254    1.160096    5.736630 H         1 <1>         0.022978 
     27 H           1.746395    0.717961    0.475855 H         1 <1>         0.027060 
     28 H           1.787017    0.819676   -1.277783 H         1 <1>         0.027060 
     29 H           2.428243   -1.452914   -0.489891 H         1 <1>         0.026819 
     30 H           0.908341   -1.632773    0.352568 H         1 <1>         0.026819 
     31 H           0.699600   -2.838930   -1.742635 H         1 <1>         0.030327 
     32 H           1.502581   -0.296286   -3.300181 H         1 <1>         0.029814 
     33 H           3.331953   -1.795234   -4.186707 H         1 <1>         0.023242 
     34 H           3.527067   -1.446522   -2.473632 H         1 <1>         0.023242 
     35 H           2.869414   -3.029759   -2.987452 H         1 <1>         0.023242 
     36 H           1.251585   -1.804463   -5.326851 H         1 <1>         0.023242 
     37 H          -0.285066   -1.381677   -4.580254 H         1 <1>         0.023242 
     38 H           0.431419   -2.998080   -4.287025 H         1 <1>         0.023242 
     39 H          -1.381974   -1.699506   -2.609340 H         1 <1>         0.026819 
     40 H          -1.285917   -1.749132   -0.867740 H         1 <1>         0.026819 
     41 H          -2.027636    0.504969   -1.685797 H         1 <1>         0.027060 
     42 H          -0.546624    0.653335   -2.630451 H         1 <1>         0.027060 
     43 H           0.388590    2.924030    0.103916 H         1 <1>         0.023507 
     44 H          -1.253411    2.835809   -0.603208 H         1 <1>         0.023507 
     45 H           0.189466    2.705249   -1.638191 H         1 <1>         0.023507 
@<TRIPOS>BOND
     1    1    2 1    
     2   14    1 1    
     3    1   16 1    
     4    1   17 1    
     5    2    3 1    
     6    2   18 1    
     7    2   19 1    
     8    3    4 1    
     9    3   20 1    
    10    3   21 1    
    11    4    5 1    
    12    4   22 1    
    13    4   23 1    
    14    5   24 1    
    15    5   25 1    
    16    5   26 1    
    17    6    7 1    
    18    6   14 1    
    19    6   27 1    
    20    6   28 1    
    21    7    8 1    
    22    7   29 1    
    23    7   30 1    
    24    8    9 1    
    25    8   12 1    
    26    8   31 1    
    27    9   10 1    
    28    9   11 1    
    29    9   32 1    
    30   10   33 1    
    31   10   34 1    
    32   10   35 1    
    33   11   36 1    
    34   11   37 1    
    35   11   38 1    
    36   12   13 1    
    37   12   39 1    
    38   12   40 1    
    39   13   14 1    
    40   13   41 1    
    41   13   42 1    
    42   14   15 1    
    43   15   43 1    
    44   15   44 1    
    45   15   45 1    
@<TRIPOS>SUBSTRUCTURE
     1 ****        6 TEMP              0 ****  ****    0 ROOT 
@<TRIPOS>NORMAL
@<TRIPOS>FF_PBC
FORCE_FIELD_SETUP_FEATURE Force Field Setup information
v1.0  0 0.000000 0.000000 0.000000 0.000000 0.000000 0.000000 NONE 0 0 0 0 1 0 0 0 0 0 0 0 0
