@<TRIPOS>MOLECULE
MOL004676
   51    54     1     1     0
SMALL
GASTEIGER


@<TRIPOS>ATOM
      1 O           1.766931    0.229864    2.123487 O.3       1 <1>        -0.342717 
      2 C           1.575055   -0.860793    3.045268 C.3       1 <1>         0.087319 
      3 C           2.766833   -0.946417    4.034100 C.3       1 <1>         0.109478 
      4 C           4.094184   -1.082603    3.245757 C.3       1 <1>         0.113985 
      5 C           4.211355    0.061376    2.208001 C.3       1 <1>         0.134506 
      6 C           2.948128    0.083825    1.312920 C.3       1 <1>         0.193532 
      7 O           3.039959    1.229015    0.452759 O.3       1 <1>        -0.312387 
      8 O           2.583496   -2.080858    4.901724 O.3       1 <1>        -0.386579 
      9 C           0.244657   -0.607600    3.797104 C.3       1 <1>        -0.036060 
     10 O           5.190305   -1.036344    4.179244 O.3       1 <1>        -0.386402 
     11 O           5.401401   -0.144863    1.421150 O.3       1 <1>        -0.384091 
     12 C           1.989327    1.559768   -0.411304 C.ar      1 <1>         0.084401 
     13 C           2.060810    2.772296   -1.122993 C.ar      1 <1>        -0.000932 
     14 C           0.808057    0.675523   -0.597338 C.ar      1 <1>        -0.000159 
     15 C          -0.223051    1.050592   -1.466710 C.ar      1 <1>         0.099010 
     16 C          -0.140087    2.323527   -2.207402 C.ar      1 <1>         0.084553 
     17 C           0.973493    3.177013   -2.049859 C.ar      1 <1>         0.088410 
     18 O          -1.328539    0.214179   -1.627964 O.3       1 <1>        -0.305131 
     19 C          -2.365175    0.506953   -2.435186 C.2       1 <1>         0.123622 
     20 C          -2.403391    1.628136   -3.176323 C.2       1 <1>         0.151805 
     21 C          -1.307742    2.615608   -3.112574 C.2       1 <1>         0.223066 
     22 O          -1.370127    3.632121   -3.785574 O.2       1 <1>        -0.284270 
     23 O          -3.443891    1.846189   -3.994315 O.3       1 <1>        -0.354461 
     24 C          -3.484839   -0.512927   -2.467760 C.ar      1 <1>         0.008296 
     25 C          -3.125439   -1.949438   -2.376573 C.ar      1 <1>        -0.049598 
     26 C          -4.123188   -2.942309   -2.405388 C.ar      1 <1>        -0.031302 
     27 C          -5.551390   -2.571295   -2.527659 C.ar      1 <1>         0.072619 
     28 C          -5.908597   -1.196339   -2.607575 C.ar      1 <1>        -0.031302 
     29 C          -4.858583   -0.150407   -2.568069 C.ar      1 <1>        -0.049598 
     30 O          -6.517498   -3.580060   -2.561708 O.3       1 <1>        -0.359832 
     31 O           1.039267    4.377785   -2.758473 O.3       1 <1>        -0.358954 
     32 H           1.483444   -1.816447    2.500199 H         1 <1>         0.062075 
     33 H           2.801770   -0.014727    4.625179 H         1 <1>         0.064584 
     34 H           4.092675   -2.053369    2.720122 H         1 <1>         0.064757 
     35 H           4.272462    1.020346    2.750855 H         1 <1>         0.067108 
     36 H           2.930403   -0.832325    0.698867 H         1 <1>         0.094158 
     37 H           3.306022   -2.175772    5.516354 H         1 <1>         0.210002 
     38 H           0.041583   -1.417465    4.514879 H         1 <1>         0.025536 
     39 H          -0.585689   -0.557813    3.075510 H         1 <1>         0.025536 
     40 H           0.291530    0.347928    4.341343 H         1 <1>         0.025536 
     41 H           6.033495   -1.101188    3.739066 H         1 <1>         0.210005 
     42 H           5.512748    0.535665    0.762865 H         1 <1>         0.210111 
     43 H           2.925519    3.411043   -0.983149 H         1 <1>         0.066933 
     44 H           0.712671   -0.267557   -0.074836 H         1 <1>         0.066957 
     45 H          -3.372166    2.663580   -4.478840 H         1 <1>         0.217537 
     46 H          -2.083101   -2.238270   -2.287334 H         1 <1>         0.062504 
     47 H          -3.852305   -3.990547   -2.338234 H         1 <1>         0.064339 
     48 H          -6.948437   -0.901026   -2.697524 H         1 <1>         0.064339 
     49 H          -5.157733    0.890604   -2.608590 H         1 <1>         0.062504 
     50 H          -7.409808   -3.262939   -2.642498 H         1 <1>         0.217313 
     51 H           1.821136    4.888726   -2.582786 H         1 <1>         0.217342 
@<TRIPOS>BOND
     1    1    2 1    
     2    1    6 1    
     3    2    3 1    
     4    2    9 1    
     5    2   32 1    
     6    3    4 1    
     7    3    8 1    
     8    3   33 1    
     9    4    5 1    
    10    4   10 1    
    11    4   34 1    
    12    5    6 1    
    13    5   11 1    
    14    5   35 1    
    15    6    7 1    
    16    6   36 1    
    17    7   12 1    
    18    8   37 1    
    19    9   38 1    
    20    9   39 1    
    21    9   40 1    
    22   10   41 1    
    23   11   42 1    
    24   12   13 2    
    25   12   14 1    
    26   13   17 1    
    27   13   43 1    
    28   14   15 2    
    29   14   44 1    
    30   15   16 1    
    31   15   18 1    
    32   16   17 2    
    33   16   21 1    
    34   17   31 1    
    35   18   19 1    
    36   19   20 2    
    37   19   24 1    
    38   20   21 1    
    39   20   23 1    
    40   21   22 2    
    41   23   45 1    
    42   24   25 1    
    43   24   29 2    
    44   25   26 2    
    45   25   46 1    
    46   26   27 1    
    47   26   47 1    
    48   27   28 2    
    49   27   30 1    
    50   28   29 1    
    51   28   48 1    
    52   29   49 1    
    53   30   50 1    
    54   31   51 1    
@<TRIPOS>SUBSTRUCTURE
     1 ****        1 TEMP              0 ****  ****    0 ROOT 
@<TRIPOS>NORMAL
@<TRIPOS>FF_PBC
FORCE_FIELD_SETUP_FEATURE Force Field Setup information
v1.0  0 0.000000 0.000000 0.000000 0.000000 0.000000 0.000000 NONE 0 0 0 0 1 0 0 0 0 0 0 0 0
