@<TRIPOS>MOLECULE
MOL013441
   55    56     1     1     0
SMALL
GASTEIGER


@<TRIPOS>ATOM
      1 O          -2.695523   -5.213382   -3.126477 O.3       1 <1>        -0.357269 
      2 C          -2.630890   -3.837752   -2.892705 C.ar      1 <1>         0.102453 
      3 C          -1.715392   -3.314156   -1.852852 C.ar      1 <1>         0.105742 
      4 C          -1.667771   -1.939381   -1.584397 C.ar      1 <1>        -0.023445 
      5 C          -2.495916   -0.967193   -2.341353 C.ar      1 <1>        -0.013993 
      6 C          -3.350345   -1.475642   -3.344170 C.ar      1 <1>        -0.053448 
      7 C          -3.425070   -2.929433   -3.624427 C.ar      1 <1>        -0.029059 
      8 O          -0.895154   -4.194479   -1.140961 O.3       1 <1>        -0.345340 
      9 C          -1.222852   -4.359586    0.249803 C.3       1 <1>         0.043136 
     10 C          -2.465894    0.554780   -2.090905 C.3       1 <1>         0.108969 
     11 C          -1.596223    1.021435   -0.882803 C.3       1 <1>         0.118232 
     12 C          -2.174435    0.482326    0.465470 C.3       1 <1>         0.073656 
     13 O          -0.226577    0.637447   -1.135605 O.3       1 <1>        -0.331163 
     14 C           0.912453    1.032693   -0.411994 C.ar      1 <1>         0.136441 
     15 C           2.245870    0.514950   -0.827743 C.ar      1 <1>         0.108786 
     16 C           3.381367    0.841187   -0.085034 C.ar      1 <1>        -0.021836 
     17 C           3.333849    1.728743    1.100371 C.ar      1 <1>        -0.020213 
     18 C           2.084365    2.279592    1.448915 C.ar      1 <1>        -0.021836 
     19 C           0.841643    1.923348    0.712846 C.ar      1 <1>         0.108786 
     20 O          -0.394949    2.449698    1.108017 O.3       1 <1>        -0.345235 
     21 C          -0.584328    3.065203    2.391722 C.3       1 <1>         0.043137 
     22 O           2.430710   -0.283292   -1.966374 O.3       1 <1>        -0.345235 
     23 C           1.446302   -1.207275   -2.452415 C.3       1 <1>         0.043137 
     24 C           4.637667    2.002220    1.832353 C.2       1 <1>        -0.056223 
     25 C           4.841604    2.416385    3.096007 C.2       1 <1>        -0.058387 
     26 C           3.821797    2.699399    4.172592 C.3       1 <1>         0.062691 
     27 O           4.490372    2.669216    5.448104 O.3       1 <1>        -0.390992 
     28 O          -3.151440   -0.556360    0.263402 O.3       1 <1>        -0.392340 
     29 O          -2.019592    1.155270   -3.326456 O.3       1 <1>        -0.384504 
     30 H          -3.291428   -5.472562   -3.818515 H         1 <1>         0.217422 
     31 H          -1.006681   -1.597559   -0.801763 H         1 <1>         0.064767 
     32 H          -3.966699   -0.791230   -3.922588 H         1 <1>         0.062192 
     33 H          -4.103755   -3.284179   -4.395855 H         1 <1>         0.064413 
     34 H          -0.552280   -5.128620    0.664028 H         1 <1>         0.052871 
     35 H          -2.265513   -4.700704    0.353692 H         1 <1>         0.052871 
     36 H          -1.080014   -3.427134    0.817924 H         1 <1>         0.052871 
     37 H          -3.511736    0.862708   -1.902779 H         1 <1>         0.067050 
     38 H          -1.626127    2.124593   -0.890148 H         1 <1>         0.065359 
     39 H          -1.356042    0.100918    1.094293 H         1 <1>         0.058395 
     40 H          -2.681059    1.300219    1.001483 H         1 <1>         0.058395 
     41 H           4.330237    0.433401   -0.404877 H         1 <1>         0.065003 
     42 H           2.038056    2.983192    2.261765 H         1 <1>         0.065003 
     43 H          -0.003349    3.995183    2.485522 H         1 <1>         0.052871 
     44 H          -1.647628    3.333058    2.485197 H         1 <1>         0.052871 
     45 H          -0.320019    2.364561    3.201396 H         1 <1>         0.052871 
     46 H           1.910220   -1.783322   -3.264301 H         1 <1>         0.052871 
     47 H           1.158003   -1.913423   -1.661197 H         1 <1>         0.052871 
     48 H           0.565257   -0.703963   -2.875441 H         1 <1>         0.052871 
     49 H           5.541355    1.833224    1.239244 H         1 <1>         0.062106 
     50 H           5.876355    2.568140    3.410861 H         1 <1>         0.059478 
     51 H           3.409785    3.711872    4.022908 H         1 <1>         0.060128 
     52 H           3.019607    1.943088    4.162903 H         1 <1>         0.060128 
     53 H           3.920136    2.884545    6.180640 H         1 <1>         0.209823 
     54 H          -3.507738   -0.916774    1.069738 H         1 <1>         0.209508 
     55 H          -2.006868    2.106843   -3.297459 H         1 <1>         0.210345 
@<TRIPOS>BOND
     1    1    2 1    
     2    1   30 1    
     3    2    3 1    
     4    2    7 2    
     5    3    4 2    
     6    3    8 1    
     7    4    5 1    
     8    4   31 1    
     9    5    6 2    
    10    5   10 1    
    11    6    7 1    
    12    6   32 1    
    13    7   33 1    
    14    8    9 1    
    15    9   34 1    
    16    9   35 1    
    17    9   36 1    
    18   10   11 1    
    19   10   29 1    
    20   10   37 1    
    21   11   12 1    
    22   11   13 1    
    23   11   38 1    
    24   12   28 1    
    25   12   39 1    
    26   12   40 1    
    27   13   14 1    
    28   14   15 1    
    29   14   19 2    
    30   15   16 2    
    31   15   22 1    
    32   16   17 1    
    33   16   41 1    
    34   17   18 2    
    35   17   24 1    
    36   18   19 1    
    37   18   42 1    
    38   19   20 1    
    39   20   21 1    
    40   21   43 1    
    41   21   44 1    
    42   21   45 1    
    43   22   23 1    
    44   23   46 1    
    45   23   47 1    
    46   23   48 1    
    47   24   25 2    
    48   24   49 1    
    49   25   26 1    
    50   25   50 1    
    51   26   27 1    
    52   26   51 1    
    53   26   52 1    
    54   27   53 1    
    55   28   54 1    
    56   29   55 1    
@<TRIPOS>SUBSTRUCTURE
     1 ****        1 TEMP              0 ****  ****    0 ROOT 
@<TRIPOS>NORMAL
@<TRIPOS>FF_PBC
FORCE_FIELD_SETUP_FEATURE Force Field Setup information
v1.0  0 0.000000 0.000000 0.000000 0.000000 0.000000 0.000000 NONE 0 0 0 0 1 0 0 0 0 0 0 0 0
