@<TRIPOS>MOLECULE
MOL005001
   55    58     1     1     0
SMALL
GASTEIGER


@<TRIPOS>ATOM
      1 O           5.935498   -0.324503   -0.835459 O.3       1 <1>        -0.331642 
      2 O          -0.896820    3.363491    0.716550 O.3       1 <1>        -0.315268 
      3 O           4.794921    1.630254   -2.629371 O.3       1 <1>        -0.357242 
      4 O          -2.825969   -0.866556   -0.901683 O.3       1 <1>        -0.358673 
      5 O          -0.193910   -0.427420   -0.447640 O.2       1 <1>        -0.286389 
      6 O          -5.750882    2.920186    0.344263 O.3       1 <1>        -0.359385 
      7 C           6.750978   -0.831527    0.238042 C.3       1 <1>         0.088944 
      8 C           3.996481   -0.143765    0.604975 C.ar      1 <1>         0.007908 
      9 C           4.688400    0.231244   -0.552967 C.ar      1 <1>         0.114009 
     10 C           5.958700   -1.373900    1.406812 C.2       1 <1>        -0.051994 
     11 C           2.043293    1.228179   -0.092470 C.ar      1 <1>        -0.009145 
     12 C           7.692640    0.300205    0.732421 C.3       1 <1>        -0.031935 
     13 C           7.539182   -2.005910   -0.400485 C.3       1 <1>        -0.031935 
     14 C           4.670641   -1.069518    1.590569 C.2       1 <1>        -0.053275 
     15 C           2.621711    0.357229    0.829336 C.ar      1 <1>        -0.044068 
     16 C           0.627621    1.689994    0.113452 C.2       1 <1>         0.052750 
     17 C           4.087439    1.199524   -1.505976 C.ar      1 <1>         0.103657 
     18 C          -1.848059    1.254492   -0.047089 C.ar      1 <1>         0.082793 
     19 C           2.801252    1.687468   -1.279097 C.ar      1 <1>        -0.021464 
     20 C          -0.441461    0.728868   -0.150059 C.2       1 <1>         0.200582 
     21 C          -4.317689    0.976422   -0.338172 C.ar      1 <1>         0.016576 
     22 C          -2.004652    2.563364    0.406347 C.ar      1 <1>         0.098077 
     23 C          -3.021395    0.431708   -0.429712 C.ar      1 <1>         0.091795 
     24 C          -5.533664    0.154963   -0.790333 C.3       1 <1>        -0.004339 
     25 C           0.362174    2.936766    0.522204 C.2       1 <1>         0.058256 
     26 C          -4.485818    2.357787    0.191139 C.ar      1 <1>         0.080983 
     27 C          -3.367906    3.115295    0.550953 C.ar      1 <1>        -0.000278 
     28 C          -5.889879   -0.855980    0.273471 C.2       1 <1>        -0.080815 
     29 C          -6.518525   -2.014458    0.018844 C.2       1 <1>        -0.079306 
     30 C          -6.872320   -2.986461    1.123271 C.3       1 <1>        -0.044040 
     31 C          -6.924673   -2.430084   -1.379001 C.3       1 <1>        -0.044040 
     32 H           6.464056   -2.025702    2.120983 H         1 <1>         0.060052 
     33 H           8.264143    0.712859   -0.114568 H         1 <1>         0.026052 
     34 H           7.104011    1.115407    1.185530 H         1 <1>         0.026052 
     35 H           8.403651   -0.084420    1.481178 H         1 <1>         0.026052 
     36 H           8.078578   -1.658054   -1.294544 H         1 <1>         0.026052 
     37 H           8.263117   -2.439983    0.306151 H         1 <1>         0.026052 
     38 H           6.827999   -2.791373   -0.708678 H         1 <1>         0.026052 
     39 H           4.124513   -1.478543    2.443227 H         1 <1>         0.062203 
     40 H           2.056395    0.041488    1.696365 H         1 <1>         0.063033 
     41 H           2.357600    2.395616   -1.968842 H         1 <1>         0.065014 
     42 H          -6.396177    0.813317   -0.972467 H         1 <1>         0.035721 
     43 H          -5.281053   -0.314850   -1.752844 H         1 <1>         0.035721 
     44 H           1.180046    3.632719    0.711106 H         1 <1>         0.089749 
     45 H          -3.493511    4.116823    0.947458 H         1 <1>         0.066956 
     46 H          -5.616693   -0.613627    1.302447 H         1 <1>         0.057473 
     47 H           5.672271    1.260505   -2.641126 H         1 <1>         0.217422 
     48 H          -3.380165   -1.506219   -0.467600 H         1 <1>         0.217354 
     49 H          -6.319980    2.369832    0.869450 H         1 <1>         0.217328 
     50 H          -6.520336   -2.657390    2.112814 H         1 <1>         0.027427 
     51 H          -7.966974   -3.097796    1.165501 H         1 <1>         0.027427 
     52 H          -6.424366   -3.968998    0.908074 H         1 <1>         0.027427 
     53 H          -7.473068   -1.614442   -1.873399 H         1 <1>         0.027427 
     54 H          -6.032217   -2.682617   -1.970283 H         1 <1>         0.027427 
     55 H          -7.569754   -3.321711   -1.369765 H         1 <1>         0.027427 
@<TRIPOS>BOND
     1    1    7 1    
     2    9    1 1    
     3   22    2 1    
     4    2   25 1    
     5   17    3 1    
     6    3   47 1    
     7   23    4 1    
     8    4   48 1    
     9   20    5 2    
    10   26    6 1    
    11    6   49 1    
    12   10    7 1    
    13    7   12 1    
    14    7   13 1    
    15    8    9 2    
    16    8   14 1    
    17   15    8 1    
    18   17    9 1    
    19   14   10 2    
    20   10   32 1    
    21   11   15 2    
    22   16   11 1    
    23   11   19 1    
    24   12   33 1    
    25   12   34 1    
    26   12   35 1    
    27   13   36 1    
    28   13   37 1    
    29   13   38 1    
    30   14   39 1    
    31   15   40 1    
    32   20   16 1    
    33   16   25 2    
    34   19   17 2    
    35   18   20 1    
    36   18   22 2    
    37   23   18 1    
    38   19   41 1    
    39   21   23 2    
    40   21   24 1    
    41   21   26 1    
    42   22   27 1    
    43   24   28 1    
    44   24   42 1    
    45   24   43 1    
    46   25   44 1    
    47   26   27 2    
    48   27   45 1    
    49   28   29 2    
    50   28   46 1    
    51   29   30 1    
    52   29   31 1    
    53   30   50 1    
    54   30   51 1    
    55   30   52 1    
    56   31   53 1    
    57   31   54 1    
    58   31   55 1    
@<TRIPOS>SUBSTRUCTURE
     1 ****        1 TEMP              0 ****  ****    0 ROOT 
@<TRIPOS>NORMAL
@<TRIPOS>FF_PBC
FORCE_FIELD_SETUP_FEATURE Force Field Setup information
v1.0  0 0.000000 0.000000 0.000000 0.000000 0.000000 0.000000 NONE 0 0 0 0 1 0 0 0 0 0 0 0 0
