@<TRIPOS>MOLECULE
MOL004905
   81    86     1     1     0
SMALL
GASTEIGER


@<TRIPOS>ATOM
      1 O          -6.101986    0.981127   -0.808064 O.3       1 <1>        -0.310871 
      2 O           6.786195    0.645168    1.707755 O.3       1 <1>        -0.391248 
      3 O           0.848204    3.208597   -0.239620 O.2       1 <1>        -0.292346 
      4 O          -1.031134   -2.416618    1.057717 O.3       1 <1>        -0.317851 
      5 O          -0.924904   -0.364576    1.945193 O.2       1 <1>        -0.263986 
      6 O          -6.341944    2.630760    0.709501 O.2       1 <1>        -0.264354 
      7 C           0.530395   -0.268299   -0.954437 C.3       1 <1>        -0.003340 
      8 C           2.787201    1.058123   -0.153417 C.3       1 <1>        -0.018237 
      9 C          -0.969118   -0.502643   -0.453926 C.3       1 <1>         0.083667 
     10 C           1.215154    0.842699   -0.071918 C.3       1 <1>         0.033815 
     11 C           3.465834   -0.351975    0.017158 C.3       1 <1>        -0.027445 
     12 C          -3.980175   -0.215665   -1.155344 C.3       1 <1>         0.001370 
     13 C          -3.265204    0.793181   -0.213475 C.3       1 <1>        -0.009746 
     14 C           1.371848   -1.577790   -0.814747 C.3       1 <1>        -0.045391 
     15 C          -1.738833    0.809933   -0.297526 C.2       1 <1>        -0.046410 
     16 C           2.899141   -1.373034   -1.018615 C.3       1 <1>        -0.048575 
     17 C           5.033216   -0.373797    0.214963 C.3       1 <1>        -0.005578 
     18 C          -1.762297   -1.490305   -1.382463 C.3       1 <1>        -0.033410 
     19 C          -3.266880   -1.593873   -1.027728 C.3       1 <1>        -0.043421 
     20 C           3.242331    1.929284    1.075392 C.3       1 <1>        -0.044329 
     21 C          -5.502188   -0.329308   -0.792261 C.3       1 <1>         0.074936 
     22 C          -3.748766    0.640641    1.260386 C.3       1 <1>        -0.031337 
     23 C          -5.299176    0.551737    1.364289 C.3       1 <1>         0.056271 
     24 C           0.369874    2.088367   -0.176094 C.2       1 <1>         0.160223 
     25 C           0.513379    0.152424   -2.463026 C.3       1 <1>        -0.057614 
     26 C           5.376722    0.559098    1.426742 C.3       1 <1>         0.060638 
     27 C          -5.784010   -0.737999    0.671489 C.3       1 <1>        -0.011012 
     28 C           3.201430    1.819887   -1.464011 C.3       1 <1>        -0.058618 
     29 C           4.781054    1.983424    1.298565 C.3       1 <1>        -0.025820 
     30 C          -1.093116    1.979326   -0.191212 C.2       1 <1>        -0.018347 
     31 C          -0.968338   -1.079373    0.954844 C.2       1 <1>         0.272745 
     32 C          -3.907898    0.324244   -2.622421 C.3       1 <1>        -0.056635 
     33 C           5.841526    0.011051   -1.063958 C.3       1 <1>        -0.057190 
     34 C           5.525066   -1.807880    0.614103 C.3       1 <1>        -0.057190 
     35 C          -5.952700    1.514764    0.409609 C.2       1 <1>         0.268488 
     36 C          -5.793727    0.667747    2.830021 C.3       1 <1>        -0.050390 
     37 C          -1.078015   -2.899488    2.414246 C.3       1 <1>         0.045894 
     38 H           1.052983    0.521103    0.963525 H         1 <1>         0.039182 
     39 H           3.097455   -0.728930    0.985439 H         1 <1>         0.031221 
     40 H          -3.618053    1.788875   -0.531838 H         1 <1>         0.035240 
     41 H           1.026628   -2.338887   -1.532270 H         1 <1>         0.027119 
     42 H           1.252976   -2.009913    0.190000 H         1 <1>         0.027119 
     43 H           3.348820   -2.366572   -0.874878 H         1 <1>         0.026846 
     44 H           3.110250   -1.084633   -2.055379 H         1 <1>         0.026846 
     45 H          -1.327330   -2.500581   -1.337378 H         1 <1>         0.027888 
     46 H          -1.740104   -1.206386   -2.437191 H         1 <1>         0.027888 
     47 H          -3.759782   -2.320057   -1.695407 H         1 <1>         0.027189 
     48 H          -3.328204   -1.998061   -0.010330 H         1 <1>         0.027189 
     49 H           2.815049    1.534573    2.011966 H         1 <1>         0.027160 
     50 H           2.890867    2.967250    0.975976 H         1 <1>         0.027160 
     51 H          -6.011578   -0.995265   -1.507950 H         1 <1>         0.060788 
     52 H          -3.347883   -0.266618    1.730255 H         1 <1>         0.028123 
     53 H          -3.386818    1.507121    1.838419 H         1 <1>         0.028123 
     54 H           0.272008   -0.684867   -3.131252 H         1 <1>         0.023565 
     55 H          -0.210295    0.962487   -2.637174 H         1 <1>         0.023565 
     56 H           1.478896    0.491920   -2.830873 H         1 <1>         0.023565 
     57 H           4.940709    0.110921    2.336085 H         1 <1>         0.059852 
     58 H          -6.871322   -0.871925    0.808435 H         1 <1>         0.030059 
     59 H          -5.294212   -1.652552    1.031492 H         1 <1>         0.030059 
     60 H           3.576108    1.153530   -2.248961 H         1 <1>         0.023535 
     61 H           2.369916    2.394117   -1.890732 H         1 <1>         0.023535 
     62 H           3.983265    2.570433   -1.304820 H         1 <1>         0.023535 
     63 H           5.306268    2.541005    0.512326 H         1 <1>         0.029038 
     64 H           4.985186    2.525149    2.238880 H         1 <1>         0.029038 
     65 H          -1.633793    2.920464   -0.091392 H         1 <1>         0.065230 
     66 H          -4.205489   -0.456915   -3.338420 H         1 <1>         0.023605 
     67 H          -4.586248    1.179685   -2.763099 H         1 <1>         0.023605 
     68 H          -2.904310    0.684835   -2.889633 H         1 <1>         0.023605 
     69 H           5.483317   -0.558631   -1.933276 H         1 <1>         0.023587 
     70 H           5.793994    1.077720   -1.302816 H         1 <1>         0.023587 
     71 H           6.907631   -0.233020   -0.940498 H         1 <1>         0.023587 
     72 H           5.528025   -2.499513   -0.240999 H         1 <1>         0.023587 
     73 H           6.560738   -1.773056    0.986165 H         1 <1>         0.023587 
     74 H           4.905061   -2.245374    1.411463 H         1 <1>         0.023587 
     75 H          -5.361905   -0.140197    3.440218 H         1 <1>         0.023987 
     76 H          -5.491082    1.636167    3.255954 H         1 <1>         0.023987 
     77 H          -6.891273    0.597200    2.873944 H         1 <1>         0.023987 
     78 H           7.282963    1.091347    1.031276 H         1 <1>         0.209800 
     79 H          -0.164423   -2.627534    2.967826 H         1 <1>         0.052962 
     80 H          -1.150323   -3.996321    2.377960 H         1 <1>         0.052962 
     81 H          -1.961348   -2.510859    2.947551 H         1 <1>         0.052962 
@<TRIPOS>BOND
     1   21    1 1    
     2    1   35 1    
     3   26    2 1    
     4    2   78 1    
     5   24    3 2    
     6   31    4 1    
     7    4   37 1    
     8   31    5 2    
     9   35    6 2    
    10    7    9 1    
    11   10    7 1    
    12   14    7 1    
    13    7   25 1    
    14    8   10 1    
    15   11    8 1    
    16    8   20 1    
    17    8   28 1    
    18    9   15 1    
    19    9   18 1    
    20    9   31 1    
    21   10   24 1    
    22   10   38 1    
    23   11   16 1    
    24   17   11 1    
    25   11   39 1    
    26   13   12 1    
    27   12   19 1    
    28   12   21 1    
    29   12   32 1    
    30   15   13 1    
    31   13   22 1    
    32   13   40 1    
    33   16   14 1    
    34   14   41 1    
    35   14   42 1    
    36   15   30 2    
    37   16   43 1    
    38   16   44 1    
    39   17   26 1    
    40   17   33 1    
    41   17   34 1    
    42   18   19 1    
    43   18   45 1    
    44   18   46 1    
    45   19   47 1    
    46   19   48 1    
    47   20   29 1    
    48   20   49 1    
    49   20   50 1    
    50   21   27 1    
    51   21   51 1    
    52   22   23 1    
    53   22   52 1    
    54   22   53 1    
    55   23   27 1    
    56   23   35 1    
    57   23   36 1    
    58   24   30 1    
    59   25   54 1    
    60   25   55 1    
    61   25   56 1    
    62   26   29 1    
    63   26   57 1    
    64   27   58 1    
    65   27   59 1    
    66   28   60 1    
    67   28   61 1    
    68   28   62 1    
    69   29   63 1    
    70   29   64 1    
    71   30   65 1    
    72   32   66 1    
    73   32   67 1    
    74   32   68 1    
    75   33   69 1    
    76   33   70 1    
    77   33   71 1    
    78   34   72 1    
    79   34   73 1    
    80   34   74 1    
    81   36   75 1    
    82   36   76 1    
    83   36   77 1    
    84   37   79 1    
    85   37   80 1    
    86   37   81 1    
@<TRIPOS>SUBSTRUCTURE
     1 ****       12 TEMP              0 ****  ****    0 ROOT 
@<TRIPOS>NORMAL
@<TRIPOS>FF_PBC
FORCE_FIELD_SETUP_FEATURE Force Field Setup information
v1.0  0 0.000000 0.000000 0.000000 0.000000 0.000000 0.000000 NONE 0 0 0 0 1 0 0 0 0 0 0 0 0
