@<TRIPOS>MOLECULE
MOL001929
  101   105     1     1     0
SMALL
GASTEIGER


@<TRIPOS>ATOM
      1 O          -5.550043    0.417548    0.148479 O.3       1 <1>        -0.345117 
      2 O          -7.855904    0.321158    0.150628 O.3       1 <1>        -0.340523 
      3 O          -5.398283   -2.430558    0.735307 O.3       1 <1>        -0.384104 
      4 O          -7.842791   -3.453177    1.974010 O.3       1 <1>        -0.386401 
      5 O         -10.335554   -2.319207    1.019720 O.3       1 <1>        -0.386488 
      6 O         -10.264721    1.509785   -0.868197 O.3       1 <1>        -0.392366 
      7 C           1.914718    0.250460   -0.200674 C.3       1 <1>        -0.025885 
      8 C           0.915996    0.575098    0.947671 C.3       1 <1>        -0.031972 
      9 C          -0.328473    1.407854    0.523840 C.3       1 <1>        -0.030653 
     10 C          -1.124632    0.647655   -0.577707 C.3       1 <1>        -0.028547 
     11 C           3.019185   -0.507004    0.619153 C.3       1 <1>        -0.032778 
     12 C           1.084007   -0.595112   -1.218573 C.3       1 <1>        -0.046813 
     13 C          -2.395494    1.449958   -1.060974 C.3       1 <1>        -0.007819 
     14 C           1.803363    1.169885    2.057502 C.3       1 <1>        -0.049160 
     15 C          -0.170660    0.178356   -1.724276 C.3       1 <1>        -0.048644 
     16 C           3.104269    0.326355    1.941901 C.3       1 <1>        -0.049187 
     17 C          -1.246745    1.640372    1.751075 C.3       1 <1>        -0.031102 
     18 C           4.438914   -0.777412   -0.000999 C.3       1 <1>        -0.040533 
     19 C           2.543166    1.515625   -0.875495 C.3       1 <1>        -0.059038 
     20 C          -3.140124    2.045760    0.133582 C.2       1 <1>        -0.064832 
     21 C          -3.366810    0.473109   -1.808357 C.3       1 <1>        -0.041305 
     22 C          -2.616848    2.122496    1.365681 C.2       1 <1>        -0.083873 
     23 C          -1.996690    2.620685   -2.018059 C.3       1 <1>        -0.055578 
     24 C          -4.547473    2.571331   -0.107839 C.3       1 <1>        -0.004719 
     25 C          -4.762007    1.078544   -2.114649 C.3       1 <1>        -0.025405 
     26 C           5.347129   -1.511540    1.045833 C.3       1 <1>        -0.049933 
     27 C          -5.441646    1.510393   -0.791169 C.3       1 <1>         0.065489 
     28 C           4.364724   -1.591258   -1.325232 C.3       1 <1>        -0.062146 
     29 C           6.818000   -1.837323    0.628331 C.3       1 <1>        -0.049734 
     30 C           7.668026   -0.648694    0.069472 C.3       1 <1>        -0.038944 
     31 C          -6.667676   -0.461599   -0.074146 C.3       1 <1>         0.188218 
     32 C           9.103023   -1.088688   -0.394114 C.3       1 <1>        -0.043894 
     33 C           7.697438    0.547536    1.077901 C.3       1 <1>        -0.052828 
     34 C          -6.576788   -1.623107    0.950932 C.3       1 <1>         0.134121 
     35 C           9.076387   -2.213958   -1.469569 C.3       1 <1>        -0.062414 
     36 C          10.057943   -1.506619    0.761660 C.3       1 <1>        -0.062414 
     37 C          -7.873819   -2.476478    0.915791 C.3       1 <1>         0.114061 
     38 C           8.494817    1.786241    0.584915 C.3       1 <1>        -0.065017 
     39 C          -9.079810   -0.427351    0.017461 C.3       1 <1>         0.113005 
     40 C          -9.113795   -1.557947    1.079917 C.3       1 <1>         0.111896 
     41 C         -10.269077    0.548699    0.206007 C.3       1 <1>         0.073015 
     42 H           0.528241   -0.377570    1.353379 H         1 <1>         0.030896 
     43 H          -0.003653    2.393614    0.168152 H         1 <1>         0.030949 
     44 H          -1.480814   -0.271756   -0.084056 H         1 <1>         0.031195 
     45 H           2.602822   -1.497438    0.869004 H         1 <1>         0.030870 
     46 H           0.747542   -1.533617   -0.748096 H         1 <1>         0.027078 
     47 H           1.674597   -0.871926   -2.100961 H         1 <1>         0.027078 
     48 H           1.986268    2.236414    1.846899 H         1 <1>         0.026828 
     49 H           1.338898    1.092768    3.055015 H         1 <1>         0.026828 
     50 H          -0.712887   -0.492462   -2.408317 H         1 <1>         0.026846 
     51 H           0.180054    1.031791   -2.318012 H         1 <1>         0.026846 
     52 H           3.203881   -0.341689    2.814355 H         1 <1>         0.026828 
     53 H           3.964559    1.014883    1.941023 H         1 <1>         0.026828 
     54 H          -1.397897    0.708253    2.317223 H         1 <1>         0.031025 
     55 H          -0.779818    2.375360    2.426670 H         1 <1>         0.031025 
     56 H           4.898024    0.192500   -0.236566 H         1 <1>         0.030096 
     57 H           1.801755    2.240780   -1.227794 H         1 <1>         0.023524 
     58 H           3.134074    1.218702   -1.752079 H         1 <1>         0.023524 
     59 H           3.218528    2.056205   -0.198711 H         1 <1>         0.023524 
     60 H          -3.537811   -0.426965   -1.195420 H         1 <1>         0.027446 
     61 H          -2.929738    0.144128   -2.763694 H         1 <1>         0.027446 
     62 H          -3.198257    2.551139    2.183985 H         1 <1>         0.057190 
     63 H          -2.828882    3.298577   -2.234862 H         1 <1>         0.023820 
     64 H          -1.657740    2.238984   -2.990565 H         1 <1>         0.023820 
     65 H          -1.197682    3.240586   -1.592951 H         1 <1>         0.023820 
     66 H          -5.054277    2.839195    0.833635 H         1 <1>         0.033519 
     67 H          -4.521916    3.489555   -0.712437 H         1 <1>         0.033519 
     68 H          -5.377951    0.330854   -2.638132 H         1 <1>         0.029048 
     69 H          -4.674571    1.941864   -2.792121 H         1 <1>         0.029048 
     70 H           5.410854   -0.928532    1.975104 H         1 <1>         0.026802 
     71 H           4.854757   -2.462950    1.309645 H         1 <1>         0.026802 
     72 H          -6.425752    1.969528   -0.998287 H         1 <1>         0.059993 
     73 H           3.907898   -1.002745   -2.127391 H         1 <1>         0.023250 
     74 H           3.782839   -2.512810   -1.177970 H         1 <1>         0.023250 
     75 H           5.357037   -1.865784   -1.705125 H         1 <1>         0.023250 
     76 H           6.775389   -2.658914   -0.099054 H         1 <1>         0.026810 
     77 H           7.325754   -2.239714    1.518996 H         1 <1>         0.026810 
     78 H           7.162452   -0.284519   -0.839661 H         1 <1>         0.030319 
     79 H          -6.650106   -0.881977   -1.091006 H         1 <1>         0.093750 
     80 H           9.565413   -0.225992   -0.902320 H         1 <1>         0.029814 
     81 H           8.086334    0.219997    2.054241 H         1 <1>         0.026538 
     82 H           6.671914    0.909027    1.245701 H         1 <1>         0.026538 
     83 H          -6.483344   -1.173971    1.952499 H         1 <1>         0.067095 
     84 H           8.342650   -1.981564   -2.256138 H         1 <1>         0.023242 
     85 H           8.829438   -3.188895   -1.024814 H         1 <1>         0.023242 
     86 H          10.065918   -2.311670   -1.943914 H         1 <1>         0.023242 
     87 H          11.051300   -1.751158    0.355350 H         1 <1>         0.023242 
     88 H           9.684166   -2.396805    1.287362 H         1 <1>         0.023242 
     89 H          10.197948   -0.700347    1.495154 H         1 <1>         0.023242 
     90 H          -7.928476   -2.990079   -0.058717 H         1 <1>         0.064758 
     91 H           8.168958    2.070892   -0.427413 H         1 <1>         0.022986 
     92 H           9.577855    1.598933    0.571759 H         1 <1>         0.022986 
     93 H           8.318693    2.641914    1.256597 H         1 <1>         0.022986 
     94 H          -9.159890   -0.853015   -0.996808 H         1 <1>         0.064668 
     95 H          -9.064680   -1.099472    2.081216 H         1 <1>         0.064673 
     96 H          -5.378608   -2.857419   -0.114515 H         1 <1>         0.210110 
     97 H         -10.165860    1.055711    1.180120 H         1 <1>         0.058370 
     98 H         -11.219871   -0.009450    0.194442 H         1 <1>         0.058370 
     99 H          -8.635135   -3.981884    2.005329 H         1 <1>         0.210005 
    100 H         -10.465143   -2.770454    0.191716 H         1 <1>         0.210004 
    101 H         -10.966502    2.150321   -0.798402 H         1 <1>         0.209508 
@<TRIPOS>BOND
     1    1   27 1    
     2   31    1 1    
     3    2   31 1    
     4   39    2 1    
     5   34    3 1    
     6    3   96 1    
     7   37    4 1    
     8    4   99 1    
     9   40    5 1    
    10    5  100 1    
    11   41    6 1    
    12    6  101 1    
    13    8    7 1    
    14    7   11 1    
    15   12    7 1    
    16    7   19 1    
    17    9    8 1    
    18    8   14 1    
    19    8   42 1    
    20   10    9 1    
    21   17    9 1    
    22    9   43 1    
    23   13   10 1    
    24   10   15 1    
    25   10   44 1    
    26   11   16 1    
    27   11   18 1    
    28   11   45 1    
    29   15   12 1    
    30   12   46 1    
    31   12   47 1    
    32   20   13 1    
    33   21   13 1    
    34   13   23 1    
    35   14   16 1    
    36   14   48 1    
    37   14   49 1    
    38   15   50 1    
    39   15   51 1    
    40   16   52 1    
    41   16   53 1    
    42   22   17 1    
    43   17   54 1    
    44   17   55 1    
    45   18   26 1    
    46   18   28 1    
    47   18   56 1    
    48   19   57 1    
    49   19   58 1    
    50   19   59 1    
    51   20   22 2    
    52   24   20 1    
    53   25   21 1    
    54   21   60 1    
    55   21   61 1    
    56   22   62 1    
    57   23   63 1    
    58   23   64 1    
    59   23   65 1    
    60   27   24 1    
    61   24   66 1    
    62   24   67 1    
    63   27   25 1    
    64   25   68 1    
    65   25   69 1    
    66   26   29 1    
    67   26   70 1    
    68   26   71 1    
    69   27   72 1    
    70   28   73 1    
    71   28   74 1    
    72   28   75 1    
    73   29   30 1    
    74   29   76 1    
    75   29   77 1    
    76   30   32 1    
    77   30   33 1    
    78   30   78 1    
    79   31   34 1    
    80   31   79 1    
    81   32   35 1    
    82   32   36 1    
    83   32   80 1    
    84   33   38 1    
    85   33   81 1    
    86   33   82 1    
    87   37   34 1    
    88   34   83 1    
    89   35   84 1    
    90   35   85 1    
    91   35   86 1    
    92   36   87 1    
    93   36   88 1    
    94   36   89 1    
    95   40   37 1    
    96   37   90 1    
    97   38   91 1    
    98   38   92 1    
    99   38   93 1    
   100   39   40 1    
   101   39   41 1    
   102   39   94 1    
   103   40   95 1    
   104   41   97 1    
   105   41   98 1    
@<TRIPOS>SUBSTRUCTURE
     1 ****        7 TEMP              0 ****  ****    0 ROOT 
@<TRIPOS>NORMAL
@<TRIPOS>FF_PBC
FORCE_FIELD_SETUP_FEATURE Force Field Setup information
v1.0  0 0.000000 0.000000 0.000000 0.000000 0.000000 0.000000 NONE 0 0 0 0 1 0 0 0 0 0 0 0 0
