@<TRIPOS>MOLECULE
MOL000124
   27    26     1     1     0
SMALL
GASTEIGER


@<TRIPOS>ATOM
      1 C          -3.831568    1.720074    0.000007 C.2       1 <1>         0.143052 
      2 C          -2.507419    1.066210   -0.000007 C.2       1 <1>        -0.023455 
      3 C          -2.296349   -0.260610    0.000051 C.2       1 <1>        -0.069316 
      4 C          -0.917852   -0.899088    0.000045 C.3       1 <1>        -0.028174 
      5 C           0.314202    0.047576    0.000044 C.3       1 <1>        -0.030837 
      6 C           1.620461   -0.714873    0.000060 C.2       1 <1>        -0.084989 
      7 C           2.823743   -0.119150   -0.000063 C.2       1 <1>        -0.079608 
      8 C           4.110143   -0.916336   -0.000060 C.3       1 <1>        -0.044049 
      9 O          -3.902655    2.938388   -0.000082 O.2       1 <1>        -0.296321 
     10 C           2.974185    1.386275   -0.000216 C.3       1 <1>        -0.044049 
     11 C          -3.460205   -1.228569    0.000133 C.3       1 <1>        -0.043388 
     12 H          -4.768365    1.165709    0.000097 H         1 <1>         0.107513 
     13 H          -1.679572    1.771879   -0.000072 H         1 <1>         0.064887 
     14 H          -0.849898   -1.541544    0.893197 H         1 <1>         0.031296 
     15 H          -0.849902   -1.541559   -0.893094 H         1 <1>         0.031296 
     16 H           0.280740    0.681709   -0.899893 H         1 <1>         0.031044 
     17 H           0.280720    0.681720    0.899973 H         1 <1>         0.031044 
     18 H           1.571185   -1.804325    0.000176 H         1 <1>         0.057155 
     19 H           3.941335   -2.003801    0.000020 H         1 <1>         0.027427 
     20 H           4.697537   -0.661702   -0.895184 H         1 <1>         0.027427 
     21 H           4.697613   -0.661580    0.894976 H         1 <1>         0.027427 
     22 H           4.032146    1.689975   -0.000094 H         1 <1>         0.027427 
     23 H           2.500831    1.813407   -0.896583 H         1 <1>         0.027427 
     24 H           2.500570    1.813640    0.895903 H         1 <1>         0.027427 
     25 H          -3.126850   -2.277725    0.000091 H         1 <1>         0.027446 
     26 H          -4.077160   -1.072909    0.898051 H         1 <1>         0.027446 
     27 H          -4.077316   -1.072894   -0.897673 H         1 <1>         0.027446 
@<TRIPOS>BOND
     1    1    2 1    
     2    1    9 2    
     3    1   12 1    
     4    2    3 2    
     5    2   13 1    
     6    3    4 1    
     7    3   11 1    
     8    4    5 1    
     9    4   14 1    
    10    4   15 1    
    11    5    6 1    
    12    5   16 1    
    13    5   17 1    
    14    6    7 2    
    15    6   18 1    
    16    7    8 1    
    17    7   10 1    
    18    8   19 1    
    19    8   20 1    
    20    8   21 1    
    21   10   22 1    
    22   10   23 1    
    23   10   24 1    
    24   11   25 1    
    25   11   26 1    
    26   11   27 1    
@<TRIPOS>SUBSTRUCTURE
     1 ****        1 TEMP              0 ****  ****    0 ROOT 
@<TRIPOS>NORMAL
@<TRIPOS>FF_PBC
FORCE_FIELD_SETUP_FEATURE Force Field Setup information
v1.0  0 0.000000 0.000000 0.000000 0.000000 0.000000 0.000000 NONE 0 0 0 0 1 0 0 0 0 0 0 0 0
