@<TRIPOS>MOLECULE
MOL000244
   29    30     1     1     0
SMALL
GASTEIGER


@<TRIPOS>ATOM
      1 C          -0.287841   -0.700631    0.238620 C.3       1 <1>        -0.000699 
      2 C          -0.252940    0.854953    0.324123 C.3       1 <1>        -0.024245 
      3 C           1.219318   -1.100287    0.244348 C.3       1 <1>         0.061365 
      4 C          -0.827061   -0.973532   -1.198448 C.3       1 <1>        -0.044505 
      5 C          -1.107144   -1.426001    1.336045 C.3       1 <1>        -0.056708 
      6 C           0.640679    0.935379   -0.944525 C.3       1 <1>        -0.032937 
      7 C          -1.637145    1.572678    0.183444 C.3       1 <1>        -0.058980 
      8 C           0.408742    1.456999    1.608983 C.3       1 <1>        -0.058980 
      9 C           1.863688    0.038544   -0.595409 C.3       1 <1>        -0.022981 
     10 O           1.443803   -2.404096   -0.323649 O.3       1 <1>        -0.391220 
     11 C          -0.180742    0.173613   -2.023690 C.3       1 <1>        -0.049033 
     12 H           0.923790    1.954459   -1.254971 H         1 <1>         0.030693 
     13 H           1.606369   -1.121677    1.277515 H         1 <1>         0.059878 
     14 H          -1.926439   -0.932801   -1.234783 H         1 <1>         0.027158 
     15 H          -0.543415   -1.967329   -1.578064 H         1 <1>         0.027158 
     16 H          -0.705007   -1.202231    2.334918 H         1 <1>         0.023604 
     17 H          -1.054688   -2.512750    1.170827 H         1 <1>         0.023604 
     18 H          -2.161574   -1.114988    1.302848 H         1 <1>         0.023604 
     19 H          -1.470450    2.652677    0.052491 H         1 <1>         0.023525 
     20 H          -2.228380    1.428639    1.100156 H         1 <1>         0.023525 
     21 H          -2.270362    1.248517   -0.649129 H         1 <1>         0.023525 
     22 H           1.396862    1.068319    1.876623 H         1 <1>         0.023525 
     23 H           0.524863    2.543525    1.477267 H         1 <1>         0.023525 
     24 H          -0.242547    1.288521    2.479588 H         1 <1>         0.023525 
     25 H           2.618951    0.597710   -0.021506 H         1 <1>         0.029305 
     26 H           2.368866   -0.345242   -1.495480 H         1 <1>         0.029305 
     27 H           2.365855   -2.638142   -0.361449 H         1 <1>         0.209800 
     28 H           0.449577   -0.206071   -2.844104 H         1 <1>         0.026830 
     29 H          -0.935634    0.831248   -2.482787 H         1 <1>         0.026830 
@<TRIPOS>BOND
     1    1    2 1    
     2    1    3 1    
     3    1    4 1    
     4    1    5 1    
     5    2    6 1    
     6    2    7 1    
     7    2    8 1    
     8    3    9 1    
     9    3   10 1    
    10    3   13 1    
    11    4   11 1    
    12    4   14 1    
    13    4   15 1    
    14    5   16 1    
    15    5   17 1    
    16    5   18 1    
    17    6    9 1    
    18    6   11 1    
    19    6   12 1    
    20    7   19 1    
    21    7   20 1    
    22    7   21 1    
    23    8   22 1    
    24    8   23 1    
    25    8   24 1    
    26    9   25 1    
    27    9   26 1    
    28   10   27 1    
    29   11   28 1    
    30   11   29 1    
@<TRIPOS>SUBSTRUCTURE
     1 ****        1 TEMP              0 ****  ****    0 ROOT 
@<TRIPOS>NORMAL
@<TRIPOS>FF_PBC
FORCE_FIELD_SETUP_FEATURE Force Field Setup information
v1.0  0 0.000000 0.000000 0.000000 0.000000 0.000000 0.000000 NONE 0 0 0 0 1 0 0 0 0 0 0 0 0
