@<TRIPOS>MOLECULE
MOL012921
   41    44     1     1     0
SMALL
GASTEIGER


@<TRIPOS>ATOM
      1 O          -1.138332   -2.139418   -0.175470 O.3       1 <1>        -0.345020 
      2 O           1.479039   -3.319981    0.146484 O.3       1 <1>        -0.345323 
      3 O          -5.214587   -0.361941    0.172730 O.2       1 <1>        -0.287926 
      4 N           1.792863    3.090045   -0.395860 N.3       1 <1>        -0.308928 
      5 C          -1.344894    0.979408   -0.243787 C.3       1 <1>         0.037102 
      6 C           0.652046    2.360055    0.193895 C.3       1 <1>         0.034879 
      7 C          -0.696864    2.364357   -0.573229 C.3       1 <1>        -0.016637 
      8 C           0.989332    0.891219    0.114290 C.ar      1 <1>        -0.020311 
      9 C          -0.102097    0.120239   -0.053633 C.ar      1 <1>         0.003772 
     10 C           2.356356    0.348236    0.183979 C.ar      1 <1>        -0.038604 
     11 C           3.523703    1.338212    0.184790 C.3       1 <1>        -0.014685 
     12 C           3.047376    2.812932    0.355078 C.3       1 <1>         0.000431 
     13 C          -2.082162    1.006814    1.077108 C.2       1 <1>        -0.066089 
     14 C          -2.148234    0.427540   -1.400690 C.2       1 <1>        -0.066089 
     15 C           0.007998   -1.353397   -0.047043 C.ar      1 <1>         0.110267 
     16 C           2.506772   -1.053623    0.206597 C.ar      1 <1>        -0.025601 
     17 C           1.312550   -1.934212    0.103591 C.ar      1 <1>         0.106234 
     18 C          -3.340120    0.570729    1.206164 C.2       1 <1>        -0.017749 
     19 C          -3.405294   -0.007407   -1.261468 C.2       1 <1>        -0.017749 
     20 C          -4.068614    0.038252    0.047647 C.2       1 <1>         0.178461 
     21 C          -1.584115   -2.723749    1.057549 C.3       1 <1>         0.043148 
     22 C           1.259159   -3.984343   -1.108540 C.3       1 <1>         0.043136 
     23 H           0.489601    2.629461    1.251337 H         1 <1>         0.051055 
     24 H          -1.342758    3.216300   -0.308926 H         1 <1>         0.029810 
     25 H          -0.455013    2.426791   -1.646636 H         1 <1>         0.029810 
     26 H           1.580609    4.152645   -0.411744 H         1 <1>         0.122518 
     27 H           4.257690    1.067954    0.960737 H         1 <1>         0.032559 
     28 H           4.002059    1.232490   -0.801806 H         1 <1>         0.032559 
     29 H           2.893841    3.017751    1.428425 H         1 <1>         0.042733 
     30 H           3.849522    3.484421    0.003943 H         1 <1>         0.042733 
     31 H          -1.571441    1.391349    1.960609 H         1 <1>         0.058507 
     32 H          -1.679332    0.374240   -2.384312 H         1 <1>         0.058507 
     33 H           3.493193   -1.497136    0.278776 H         1 <1>         0.064694 
     34 H          -3.847195    0.600459    2.171097 H         1 <1>         0.065287 
     35 H          -3.957261   -0.404577   -2.113813 H         1 <1>         0.065287 
     36 H          -2.498186   -3.300231    0.853331 H         1 <1>         0.052871 
     37 H          -1.817845   -1.941542    1.796246 H         1 <1>         0.052871 
     38 H          -0.823526   -3.402637    1.473152 H         1 <1>         0.052871 
     39 H           1.441497   -5.059256   -0.963583 H         1 <1>         0.052871 
     40 H           1.958082   -3.607307   -1.871356 H         1 <1>         0.052871 
     41 H           0.226580   -3.850345   -1.464858 H         1 <1>         0.052871 
@<TRIPOS>BOND
     1   15    1 1    
     2    1   21 1    
     3   17    2 1    
     4    2   22 1    
     5   20    3 2    
     6    6    4 1    
     7    4   12 1    
     8    4   26 1    
     9    5    7 1    
    10    5    9 1    
    11   13    5 1    
    12    5   14 1    
    13    7    6 1    
    14    8    6 1    
    15    6   23 1    
    16    7   24 1    
    17    7   25 1    
    18    9    8 2    
    19    8   10 1    
    20    9   15 1    
    21   10   11 1    
    22   10   16 2    
    23   11   12 1    
    24   11   27 1    
    25   11   28 1    
    26   12   29 1    
    27   12   30 1    
    28   18   13 2    
    29   13   31 1    
    30   14   19 2    
    31   14   32 1    
    32   15   17 2    
    33   17   16 1    
    34   16   33 1    
    35   18   20 1    
    36   18   34 1    
    37   19   20 1    
    38   19   35 1    
    39   21   36 1    
    40   21   37 1    
    41   21   38 1    
    42   22   39 1    
    43   22   40 1    
    44   22   41 1    
@<TRIPOS>SUBSTRUCTURE
     1 ****        4 TEMP              0 ****  ****    0 ROOT 
@<TRIPOS>NORMAL
@<TRIPOS>FF_PBC
FORCE_FIELD_SETUP_FEATURE Force Field Setup information
v1.0  0 0.000000 0.000000 0.000000 0.000000 0.000000 0.000000 NONE 0 0 0 0 1 0 0 0 0 0 0 0 0
