@<TRIPOS>MOLECULE
MOL005400
  124   129     1     1     0
SMALL
GASTEIGER


@<TRIPOS>ATOM
      1 O           0.606438    2.632248    3.567215 O.3       1 <1>        -0.391466 
      2 O          -0.975579   -2.132384   -2.279405 O.3       1 <1>        -0.344881 
      3 O          -1.845346   -2.987344   -4.322843 O.3       1 <1>        -0.340513 
      4 O          -3.817997   -0.916513   -4.318291 O.3       1 <1>        -0.337759 
      5 O          -0.256439    0.083082   -3.578925 O.3       1 <1>        -0.386391 
      6 O          -2.200568   -1.006253   -6.587217 O.3       1 <1>        -0.386488 
      7 O          -4.961292    1.071356   -3.561674 O.3       1 <1>        -0.340519 
      8 O           1.624842   -2.679711   -5.687688 O.3       1 <1>        -0.392366 
      9 O          -6.201575    1.056615   -6.383434 O.3       1 <1>        -0.384104 
     10 O          -6.476988   -2.056059   -4.438215 O.3       1 <1>        -0.386401 
     11 O          -7.781242    1.454788   -4.226752 O.3       1 <1>        -0.386488 
     12 O          -6.613557   -1.037320   -0.915703 O.3       1 <1>        -0.392366 
     13 C           1.795100   -1.631530    3.227517 C.3       1 <1>        -0.029272 
     14 C           0.324483   -1.130908    2.867391 C.3       1 <1>        -0.029442 
     15 C           2.881721   -0.493996    3.526819 C.3       1 <1>        -0.022998 
     16 C          -0.680904   -2.066880    2.043885 C.3       1 <1>        -0.025393 
     17 C           0.016567   -3.229582    1.248843 C.3       1 <1>        -0.027611 
     18 C           2.391010    0.998885    3.712419 C.3       1 <1>        -0.002808 
     19 C           2.314107   -2.866599    2.386463 C.3       1 <1>        -0.039986 
     20 C           0.201824    0.401768    2.594156 C.3       1 <1>        -0.022938 
     21 C           1.155735   -3.854076    2.099876 C.3       1 <1>        -0.046264 
     22 C           0.863496    1.224512    3.725040 C.3       1 <1>         0.059381 
     23 C           0.290615   -2.943005   -0.282826 C.3       1 <1>        -0.005221 
     24 C           3.896405   -0.332240    2.347125 C.3       1 <1>        -0.046451 
     25 C           3.133547    1.888616    2.666285 C.3       1 <1>        -0.014460 
     26 C          -1.556479   -1.265692    1.011974 C.3       1 <1>        -0.044728 
     27 C           4.437806    1.111855    2.406670 C.3       1 <1>        -0.045657 
     28 C          -1.108864   -2.819816   -1.007228 C.3       1 <1>         0.067175 
     29 C           3.669747   -0.840145    4.842414 C.3       1 <1>        -0.058938 
     30 C          -1.696893   -2.718163    3.063131 C.3       1 <1>        -0.059026 
     31 C          -2.183998   -2.159397   -0.087090 C.3       1 <1>        -0.025470 
     32 C           3.458736   -3.709541    3.041562 C.3       1 <1>        -0.062128 
     33 C           1.031022   -4.156690   -0.937238 C.3       1 <1>        -0.057181 
     34 C           1.180914   -1.673924   -0.535041 C.3       1 <1>        -0.057181 
     35 C           3.387631    3.347833    3.019715 C.2       1 <1>        -0.072794 
     36 C           2.814255    4.362343    2.047796 C.3       1 <1>        -0.043505 
     37 C           4.089027    3.696994    4.111794 C.2       1 <1>        -0.081014 
     38 C          -2.119494   -2.169040   -3.168980 C.3       1 <1>         0.188595 
     39 C          -2.566073   -0.742547   -3.601716 C.3       1 <1>         0.140625 
     40 C           4.404775    5.118053    4.518108 C.3       1 <1>        -0.016057 
     41 C          -1.410115   -0.105629   -4.423460 C.3       1 <1>         0.114429 
     42 C          -0.824639   -2.469930   -5.205249 C.3       1 <1>         0.113005 
     43 C          -1.101214   -1.005279   -5.650597 C.3       1 <1>         0.111906 
     44 C           5.276187    5.764691    3.465402 C.2       1 <1>        -0.081549 
     45 C           0.608209   -2.744141   -4.667653 C.3       1 <1>         0.073015 
     46 C          -4.526603    0.284710   -4.688859 C.3       1 <1>         0.188544 
     47 C           5.200083    7.048177    3.077029 C.2       1 <1>        -0.079326 
     48 C          -5.681873   -0.084251   -5.663219 C.3       1 <1>         0.134126 
     49 C          -6.852000   -0.741743   -4.895209 C.3       1 <1>         0.114061 
     50 C           6.084122    7.592258    1.975767 C.3       1 <1>        -0.044040 
     51 C           4.238483    8.039821    3.694183 C.3       1 <1>        -0.044040 
     52 C          -6.063106    0.506521   -2.814922 C.3       1 <1>         0.113005 
     53 C          -7.277717    0.195387   -3.733493 C.3       1 <1>         0.111896 
     54 C          -5.612143   -0.645274   -1.873762 C.3       1 <1>         0.073015 
     55 H           1.663642   -2.146845    4.196070 H         1 <1>         0.031156 
     56 H          -0.157687   -1.090963    3.859803 H         1 <1>         0.030984 
     57 H          -0.698346   -4.068224    1.184325 H         1 <1>         0.031218 
     58 H           2.709466    1.402078    4.686457 H         1 <1>         0.033676 
     59 H           2.713242   -2.575356    1.411142 H         1 <1>         0.030114 
     60 H          -0.854382    0.716260    2.590651 H         1 <1>         0.029305 
     61 H           0.633042    0.696010    1.632360 H         1 <1>         0.029305 
     62 H           1.517528   -4.765673    1.601233 H         1 <1>         0.027095 
     63 H           0.771575   -4.196642    3.072002 H         1 <1>         0.027095 
     64 H           0.461828    0.921949    4.711044 H         1 <1>         0.059628 
     65 H           4.734534   -1.041718    2.355933 H         1 <1>         0.027088 
     66 H           3.380779   -0.410725    1.379148 H         1 <1>         0.027088 
     67 H           2.580050    1.859478    1.715597 H         1 <1>         0.034917 
     68 H          -2.374629   -0.732502    1.523666 H         1 <1>         0.027149 
     69 H          -0.991307   -0.509738    0.452954 H         1 <1>         0.027149 
     70 H           4.933060    1.423768    1.471333 H         1 <1>         0.027124 
     71 H           5.159778    1.224589    3.228243 H         1 <1>         0.027124 
     72 H          -1.467934   -3.837704   -1.243692 H         1 <1>         0.060224 
     73 H           4.488010   -0.132043    5.038514 H         1 <1>         0.023526 
     74 H           4.120136   -1.835989    4.843669 H         1 <1>         0.023526 
     75 H           2.983876   -0.798198    5.703621 H         1 <1>         0.023526 
     76 H          -2.406148   -3.417059    2.599043 H         1 <1>         0.023525 
     77 H          -1.178228   -3.271561    3.858650 H         1 <1>         0.023525 
     78 H          -2.306202   -1.946263    3.559908 H         1 <1>         0.023525 
     79 H          -2.856894   -1.528533   -0.680017 H         1 <1>         0.029047 
     80 H          -2.818825   -2.929118    0.377542 H         1 <1>         0.029047 
     81 H           4.418846   -3.183562    3.069755 H         1 <1>         0.023251 
     82 H           3.658756   -4.624470    2.462206 H         1 <1>         0.023251 
     83 H           3.187079   -4.019973    4.062091 H         1 <1>         0.023251 
     84 H           2.066384   -4.260934   -0.580407 H         1 <1>         0.023587 
     85 H           1.082452   -4.014828   -2.023145 H         1 <1>         0.023587 
     86 H           0.509494   -5.106782   -0.743534 H         1 <1>         0.023587 
     87 H           2.204989   -1.923593   -0.850136 H         1 <1>         0.023587 
     88 H           1.275328   -1.078653    0.370982 H         1 <1>         0.023587 
     89 H           0.787752   -0.999927   -1.306479 H         1 <1>         0.023587 
     90 H          -0.316407    2.863049    3.600994 H         1 <1>         0.209789 
     91 H           1.748261    4.159509    1.869624 H         1 <1>         0.027445 
     92 H           2.889438    5.405502    2.377929 H         1 <1>         0.027445 
     93 H           3.350726    4.270957    1.091508 H         1 <1>         0.027445 
     94 H           4.483999    2.925314    4.772329 H         1 <1>         0.057470 
     95 H          -2.994434   -2.663059   -2.717294 H         1 <1>         0.093760 
     96 H          -2.724521   -0.129146   -2.701860 H         1 <1>         0.067477 
     97 H           4.972359    5.123233    5.462304 H         1 <1>         0.034978 
     98 H           3.453308    5.639096    4.697802 H         1 <1>         0.034978 
     99 H          -1.690779    0.902858   -4.764522 H         1 <1>         0.064768 
    100 H          -0.902383   -3.091713   -6.112499 H         1 <1>         0.064668 
    101 H          -0.220024   -0.610505   -6.181216 H         1 <1>         0.064673 
    102 H           6.015178    5.111837    2.998605 H         1 <1>         0.057453 
    103 H           0.882396   -2.106721   -3.815245 H         1 <1>         0.058370 
    104 H           0.612582   -3.790672   -4.328666 H         1 <1>         0.058370 
    105 H          -3.873257    0.943148   -5.272745 H         1 <1>         0.093754 
    106 H           0.483158    0.500541   -4.010290 H         1 <1>         0.210005 
    107 H          -2.377904   -0.156919   -6.978077 H         1 <1>         0.210004 
    108 H          -5.301117   -0.819776   -6.394070 H         1 <1>         0.067095 
    109 H           1.797525   -1.804609   -6.016513 H         1 <1>         0.209508 
    110 H          -7.691081   -0.853566   -5.604868 H         1 <1>         0.064758 
    111 H           6.713314    6.820384    1.507167 H         1 <1>         0.027427 
    112 H           5.452708    8.038346    1.192392 H         1 <1>         0.027427 
    113 H           6.744908    8.370805    2.385828 H         1 <1>         0.027427 
    114 H           4.153130    7.896681    4.781361 H         1 <1>         0.027427 
    115 H           4.576469    9.074168    3.529047 H         1 <1>         0.027427 
    116 H           3.247066    7.922126    3.232213 H         1 <1>         0.027427 
    117 H          -6.392744    1.313602   -2.139047 H         1 <1>         0.064668 
    118 H          -8.087916   -0.277564   -3.155699 H         1 <1>         0.064673 
    119 H          -5.559337    1.500042   -6.928049 H         1 <1>         0.210110 
    120 H          -5.238520   -1.523314   -2.417164 H         1 <1>         0.058370 
    121 H          -4.784313   -0.242534   -1.272359 H         1 <1>         0.058370 
    122 H          -7.184785   -2.529324   -4.011926 H         1 <1>         0.210005 
    123 H          -8.511680    1.371695   -4.831649 H         1 <1>         0.210004 
    124 H          -7.348286   -1.510248   -1.291044 H         1 <1>         0.209508 
@<TRIPOS>BOND
     1   22    1 1    
     2    1   90 1    
     3    2   28 1    
     4   38    2 1    
     5   38    3 1    
     6    3   42 1    
     7    4   39 1    
     8   46    4 1    
     9   41    5 1    
    10    5  106 1    
    11   43    6 1    
    12    6  107 1    
    13    7   46 1    
    14   52    7 1    
    15   45    8 1    
    16    8  109 1    
    17   48    9 1    
    18    9  119 1    
    19   49   10 1    
    20   10  122 1    
    21   53   11 1    
    22   11  123 1    
    23   54   12 1    
    24   12  124 1    
    25   14   13 1    
    26   13   15 1    
    27   19   13 1    
    28   13   55 1    
    29   16   14 1    
    30   14   20 1    
    31   14   56 1    
    32   15   18 1    
    33   15   24 1    
    34   15   29 1    
    35   17   16 1    
    36   26   16 1    
    37   16   30 1    
    38   17   21 1    
    39   23   17 1    
    40   17   57 1    
    41   22   18 1    
    42   18   25 1    
    43   18   58 1    
    44   21   19 1    
    45   19   32 1    
    46   19   59 1    
    47   20   22 1    
    48   20   60 1    
    49   20   61 1    
    50   21   62 1    
    51   21   63 1    
    52   22   64 1    
    53   28   23 1    
    54   23   33 1    
    55   23   34 1    
    56   24   27 1    
    57   24   65 1    
    58   24   66 1    
    59   25   27 1    
    60   25   35 1    
    61   25   67 1    
    62   31   26 1    
    63   26   68 1    
    64   26   69 1    
    65   27   70 1    
    66   27   71 1    
    67   28   31 1    
    68   28   72 1    
    69   29   73 1    
    70   29   74 1    
    71   29   75 1    
    72   30   76 1    
    73   30   77 1    
    74   30   78 1    
    75   31   79 1    
    76   31   80 1    
    77   32   81 1    
    78   32   82 1    
    79   32   83 1    
    80   33   84 1    
    81   33   85 1    
    82   33   86 1    
    83   34   87 1    
    84   34   88 1    
    85   34   89 1    
    86   35   36 1    
    87   35   37 2    
    88   36   91 1    
    89   36   92 1    
    90   36   93 1    
    91   37   40 1    
    92   37   94 1    
    93   39   38 1    
    94   38   95 1    
    95   39   41 1    
    96   39   96 1    
    97   40   44 1    
    98   40   97 1    
    99   40   98 1    
   100   41   43 1    
   101   41   99 1    
   102   43   42 1    
   103   42   45 1    
   104   42  100 1    
   105   43  101 1    
   106   44   47 2    
   107   44  102 1    
   108   45  103 1    
   109   45  104 1    
   110   46   48 1    
   111   46  105 1    
   112   47   50 1    
   113   47   51 1    
   114   49   48 1    
   115   48  108 1    
   116   53   49 1    
   117   49  110 1    
   118   50  111 1    
   119   50  112 1    
   120   50  113 1    
   121   51  114 1    
   122   51  115 1    
   123   51  116 1    
   124   52   53 1    
   125   52   54 1    
   126   52  117 1    
   127   53  118 1    
   128   54  120 1    
   129   54  121 1    
@<TRIPOS>SUBSTRUCTURE
     1 ****       13 TEMP              0 ****  ****    0 ROOT 
@<TRIPOS>NORMAL
@<TRIPOS>FF_PBC
FORCE_FIELD_SETUP_FEATURE Force Field Setup information
v1.0  0 0.000000 0.000000 0.000000 0.000000 0.000000 0.000000 NONE 0 0 0 0 1 0 0 0 0 0 0 0 0
