@<TRIPOS>MOLECULE
MOL004874
   43    45     1     1     0
SMALL
GASTEIGER


@<TRIPOS>ATOM
      1 C           1.500155   -3.522185    0.862787 C.ar      1 <1>        -0.025639 
      2 C           0.897118   -4.784768    0.377162 C.ar      1 <1>         0.102480 
      3 C          -0.378053   -4.774195   -0.193460 C.ar      1 <1>         0.102783 
      4 C          -1.134531   -3.501919   -0.301883 C.ar      1 <1>        -0.021341 
      5 C          -0.585584   -2.290241    0.210038 C.ar      1 <1>        -0.009380 
      6 C          -1.304902   -0.990833    0.199428 C.ar      1 <1>         0.015786 
      7 C          -2.786101   -0.948341    0.290035 C.ar      1 <1>         0.082986 
      8 C          -3.440176    0.286451    0.181392 C.ar      1 <1>        -0.001277 
      9 C          -2.674773    1.542955    0.012894 C.ar      1 <1>         0.078768 
     10 C          -1.270909    1.529509   -0.007139 C.ar      1 <1>        -0.010021 
     11 C          -0.557604    0.226403    0.128855 C.ar      1 <1>        -0.030978 
     12 C           0.973447    0.125467    0.211548 C.3       1 <1>        -0.022669 
     13 C           1.372579   -0.973841    1.228804 C.3       1 <1>        -0.023005 
     14 C           0.780979   -2.306691    0.773877 C.ar      1 <1>        -0.036670 
     15 O           1.611905   -5.978485    0.500245 O.3       1 <1>        -0.357268 
     16 O          -0.927339   -5.977691   -0.652634 O.3       1 <1>        -0.357261 
     17 O          -3.509686   -2.125089    0.507905 O.3       1 <1>        -0.359134 
     18 O          -3.378297    2.739990   -0.118446 O.3       1 <1>        -0.359460 
     19 C          -0.532017    2.870086   -0.171478 C.3       1 <1>        -0.006531 
     20 C           0.659010    2.832609   -1.097043 C.2       1 <1>        -0.080890 
     21 C           1.734569    3.625565   -0.946172 C.2       1 <1>        -0.079307 
     22 C           2.937307    3.509659   -1.858082 C.3       1 <1>        -0.044040 
     23 C           1.811172    4.677595    0.140039 C.3       1 <1>        -0.044040 
     24 H           2.499719   -3.542977    1.283282 H         1 <1>         0.064694 
     25 H          -2.110897   -3.502394   -0.771494 H         1 <1>         0.065021 
     26 H          -4.520708    0.341232    0.227286 H         1 <1>         0.066929 
     27 H           1.423905    1.063322    0.564996 H         1 <1>         0.031660 
     28 H           1.371132   -0.110249   -0.788033 H         1 <1>         0.031660 
     29 H           0.954620   -0.737816    2.218160 H         1 <1>         0.031651 
     30 H           2.470476   -1.034251    1.313604 H         1 <1>         0.031651 
     31 H           1.092887   -6.731506    0.232988 H         1 <1>         0.217422 
     32 H          -1.860166   -5.930560   -0.828290 H         1 <1>         0.217422 
     33 H          -4.379060   -1.986051    0.868583 H         1 <1>         0.217339 
     34 H          -3.362304    3.245090    0.687732 H         1 <1>         0.217326 
     35 H          -1.185992    3.638064   -0.607124 H         1 <1>         0.035648 
     36 H          -0.268263    3.180164    0.848078 H         1 <1>         0.035648 
     37 H           0.611782    2.118594   -1.920606 H         1 <1>         0.057472 
     38 H           2.998745    4.391342   -2.514884 H         1 <1>         0.027427 
     39 H           2.903899    2.609959   -2.494841 H         1 <1>         0.027427 
     40 H           3.857070    3.458781   -1.253179 H         1 <1>         0.027427 
     41 H           0.859726    5.225096    0.227334 H         1 <1>         0.027427 
     42 H           2.598280    5.416218   -0.064946 H         1 <1>         0.027427 
     43 H           2.033342    4.184086    1.100255 H         1 <1>         0.027427 
@<TRIPOS>BOND
     1    1    2 1    
     2    1   14 2    
     3    1   24 1    
     4    2    3 2    
     5    2   15 1    
     6    3    4 1    
     7    3   16 1    
     8    4    5 2    
     9    4   25 1    
    10    5    6 1    
    11    5   14 1    
    12    6    7 1    
    13    6   11 2    
    14    7    8 2    
    15    7   17 1    
    16    8    9 1    
    17    8   26 1    
    18    9   10 2    
    19    9   18 1    
    20   10   11 1    
    21   10   19 1    
    22   11   12 1    
    23   12   13 1    
    24   12   27 1    
    25   12   28 1    
    26   13   14 1    
    27   13   29 1    
    28   13   30 1    
    29   15   31 1    
    30   16   32 1    
    31   17   33 1    
    32   18   34 1    
    33   19   20 1    
    34   19   35 1    
    35   19   36 1    
    36   20   21 2    
    37   20   37 1    
    38   21   22 1    
    39   21   23 1    
    40   22   38 1    
    41   22   39 1    
    42   22   40 1    
    43   23   41 1    
    44   23   42 1    
    45   23   43 1    
@<TRIPOS>SUBSTRUCTURE
     1 ****        1 TEMP              0 ****  ****    0 ROOT 
@<TRIPOS>NORMAL
@<TRIPOS>FF_PBC
FORCE_FIELD_SETUP_FEATURE Force Field Setup information
v1.0  0 0.000000 0.000000 0.000000 0.000000 0.000000 0.000000 NONE 0 0 0 0 1 0 0 0 0 0 0 0 0
