@<TRIPOS>MOLECULE
MOL004852
   55    57     1     1     0
SMALL
GASTEIGER


@<TRIPOS>ATOM
      1 O           0.344221   -0.887346   -0.982965 O.3       1 <1>        -0.307796 
      2 O          -3.538909    1.415030   -2.888476 O.3       1 <1>        -0.359468 
      3 O          -1.881877   -3.158776    1.465676 O.2       1 <1>        -0.287105 
      4 O           6.757248   -1.887481   -0.370022 O.3       1 <1>        -0.359551 
      5 C          -1.886254   -1.466197   -0.212449 C.ar      1 <1>         0.052600 
      6 C          -3.921686   -0.350928   -1.149138 C.ar      1 <1>        -0.013101 
      7 C          -1.044809   -0.717728   -1.028708 C.ar      1 <1>         0.096332 
      8 C           0.945494   -1.769335   -0.164492 C.2       1 <1>         0.093871 
      9 C           2.458176   -1.845687   -0.222888 C.ar      1 <1>         0.006017 
     10 C          -3.356139   -1.285444   -0.266667 C.ar      1 <1>        -0.042511 
     11 C          -5.447639   -0.195458   -1.207325 C.3       1 <1>        -0.006789 
     12 C           4.661001   -0.710884   -0.648740 C.ar      1 <1>        -0.013299 
     13 C          -3.021870    0.461738   -2.012989 C.ar      1 <1>         0.078535 
     14 C          -1.635566    0.273536   -1.955736 C.ar      1 <1>        -0.000420 
     15 C          -1.227996   -2.455243    0.712581 C.2       1 <1>         0.191037 
     16 C           3.178257   -0.699246   -0.595001 C.ar      1 <1>        -0.046193 
     17 C           0.234885   -2.538746    0.672181 C.2       1 <1>         0.016832 
     18 C           5.416518    0.562986   -1.043078 C.3       1 <1>        -0.006792 
     19 C           3.206129   -3.088745    0.094836 C.ar      1 <1>        -0.049664 
     20 C           5.360425   -1.883349   -0.330273 C.ar      1 <1>         0.076073 
     21 C          -5.877870    0.803965   -0.158286 C.2       1 <1>        -0.080898 
     22 C           4.604968   -3.104710    0.047048 C.ar      1 <1>        -0.031026 
     23 C           5.739865    1.309190    0.230211 C.2       1 <1>        -0.080898 
     24 C          -6.647269    0.541891    0.911929 C.2       1 <1>        -0.079307 
     25 C           5.256380    2.512420    0.581055 C.2       1 <1>        -0.079307 
     26 C          -7.031042    1.630134    1.892655 C.3       1 <1>        -0.044040 
     27 C          -7.185877   -0.837984    1.219920 C.3       1 <1>        -0.044040 
     28 C           5.652365    3.171184    1.885403 C.3       1 <1>        -0.044040 
     29 C           4.292696    3.293859   -0.284367 C.3       1 <1>        -0.044040 
     30 H          -3.987959   -1.884318    0.379661 H         1 <1>         0.062902 
     31 H          -5.754163    0.170146   -2.199074 H         1 <1>         0.035640 
     32 H          -5.912130   -1.184093   -1.082905 H         1 <1>         0.035640 
     33 H          -0.985383    0.861600   -2.593166 H         1 <1>         0.066954 
     34 H           2.646092    0.213316   -0.839295 H         1 <1>         0.062784 
     35 H           0.701109   -3.243506    1.357226 H         1 <1>         0.068218 
     36 H           6.356781    0.307040   -1.555574 H         1 <1>         0.035640 
     37 H           4.810352    1.139108   -1.756166 H         1 <1>         0.035640 
     38 H           2.680545   -3.999343    0.358822 H         1 <1>         0.062503 
     39 H          -5.517812    1.822159   -0.308052 H         1 <1>         0.057472 
     40 H           5.136728   -4.019735    0.285330 H         1 <1>         0.064348 
     41 H           6.428417    0.795056    0.902952 H         1 <1>         0.057472 
     42 H          -4.143879    2.004561   -2.453509 H         1 <1>         0.217326 
     43 H          -6.666111    2.625671    1.598430 H         1 <1>         0.027427 
     44 H          -8.128035    1.682357    1.969299 H         1 <1>         0.027427 
     45 H          -6.614755    1.393033    2.883742 H         1 <1>         0.027427 
     46 H          -6.362040   -1.562350    1.292047 H         1 <1>         0.027427 
     47 H          -7.730801   -0.858983    2.176221 H         1 <1>         0.027427 
     48 H          -7.880630   -1.153974    0.427710 H         1 <1>         0.027427 
     49 H           6.389223    2.585829    2.456052 H         1 <1>         0.027427 
     50 H           6.089670    4.160388    1.680763 H         1 <1>         0.027427 
     51 H           4.757705    3.301004    2.513383 H         1 <1>         0.027427 
     52 H           3.399444    2.691305   -0.504069 H         1 <1>         0.027427 
     53 H           3.956519    4.217788    0.210274 H         1 <1>         0.027427 
     54 H           4.784708    3.575754   -1.227109 H         1 <1>         0.027427 
     55 H           7.142877   -2.731157   -0.164589 H         1 <1>         0.217325 
@<TRIPOS>BOND
     1    1    7 1    
     2    8    1 1    
     3   13    2 1    
     4    2   42 1    
     5   15    3 2    
     6   20    4 1    
     7    4   55 1    
     8    7    5 2    
     9    5   10 1    
    10    5   15 1    
    11   10    6 2    
    12    6   11 1    
    13    6   13 1    
    14    7   14 1    
    15    9    8 1    
    16    8   17 2    
    17   16    9 2    
    18    9   19 1    
    19   10   30 1    
    20   11   21 1    
    21   11   31 1    
    22   11   32 1    
    23   12   16 1    
    24   12   18 1    
    25   12   20 2    
    26   13   14 2    
    27   14   33 1    
    28   15   17 1    
    29   16   34 1    
    30   17   35 1    
    31   18   23 1    
    32   18   36 1    
    33   18   37 1    
    34   19   22 2    
    35   19   38 1    
    36   20   22 1    
    37   21   24 2    
    38   21   39 1    
    39   22   40 1    
    40   23   25 2    
    41   23   41 1    
    42   24   26 1    
    43   24   27 1    
    44   25   28 1    
    45   25   29 1    
    46   26   43 1    
    47   26   44 1    
    48   26   45 1    
    49   27   46 1    
    50   27   47 1    
    51   27   48 1    
    52   28   49 1    
    53   28   50 1    
    54   28   51 1    
    55   29   52 1    
    56   29   53 1    
    57   29   54 1    
@<TRIPOS>SUBSTRUCTURE
     1 ****        1 TEMP              0 ****  ****    0 ROOT 
@<TRIPOS>NORMAL
@<TRIPOS>FF_PBC
FORCE_FIELD_SETUP_FEATURE Force Field Setup information
v1.0  0 0.000000 0.000000 0.000000 0.000000 0.000000 0.000000 NONE 0 0 0 0 1 0 0 0 0 0 0 0 0
