@<TRIPOS>MOLECULE
MOL002235
   42    44     1     1     0
SMALL
GASTEIGER


@<TRIPOS>ATOM
      1 C          -5.163909    0.223801    0.017213 C.3       1 <1>         0.043138 
      2 C          -5.076462    4.208131    0.142251 C.3       1 <1>         0.043243 
      3 O          -3.647352    4.347431    0.114953 O.3       1 <1>        -0.342940 
      4 C          -2.778236    3.242891    0.111010 C.ar      1 <1>         0.136267 
      5 C          -3.260102    1.829498    0.149814 C.ar      1 <1>         0.110695 
      6 O          -4.635203    1.549307    0.189736 O.3       1 <1>        -0.345170 
      7 C          -1.421449    3.495810    0.067364 C.ar      1 <1>         0.118560 
      8 C          -0.451048    2.374998    0.055723 C.ar      1 <1>         0.087099 
      9 C          -0.879166    1.111273    0.095050 C.ar      1 <1>         0.099177 
     10 C          -2.328332    0.819852    0.144357 C.ar      1 <1>         0.002266 
     11 C           1.039476    2.598479   -0.004531 C.2       1 <1>         0.223152 
     12 C           1.915264    1.415460   -0.048802 C.2       1 <1>         0.151808 
     13 C           1.353270    0.194392    0.033605 C.2       1 <1>         0.123702 
     14 O           0.021372    0.042273    0.091273 O.3       1 <1>        -0.305128 
     15 O           3.242010    1.594857   -0.183731 O.3       1 <1>        -0.354461 
     16 C           1.753426   -2.200819   -0.844164 C.ar      1 <1>        -0.049428 
     17 C           2.138457   -1.099068    0.071096 C.ar      1 <1>         0.010729 
     18 C           2.429192   -3.377634   -0.834265 C.ar      1 <1>        -0.028519 
     19 C           3.573736   -3.574084    0.095526 C.ar      1 <1>         0.105440 
     20 C           3.930006   -2.558102    0.945227 C.ar      1 <1>         0.103079 
     21 C           3.173733   -1.284726    0.938317 C.ar      1 <1>        -0.019680 
     22 O          -0.954148    4.812330    0.030842 O.3       1 <1>        -0.356588 
     23 O           1.510066    3.724539   -0.021717 O.2       1 <1>        -0.284269 
     24 O           4.308801   -4.768590    0.132551 O.3       1 <1>        -0.345349 
     25 O           5.005846   -2.706157    1.824964 O.3       1 <1>        -0.357255 
     26 C           3.920824   -5.900563   -0.664113 C.3       1 <1>         0.043135 
     27 H          -6.260494    0.300974    0.005313 H         1 <1>         0.052871 
     28 H          -4.875640   -0.432686    0.852427 H         1 <1>         0.052871 
     29 H          -4.835897   -0.207636   -0.941383 H         1 <1>         0.052871 
     30 H          -5.511890    5.218510    0.125528 H         1 <1>         0.052872 
     31 H          -5.440598    3.664554   -0.743875 H         1 <1>         0.052872 
     32 H          -5.406064    3.707464    1.066287 H         1 <1>         0.052872 
     33 H          -2.612644   -0.222908    0.174537 H         1 <1>         0.067039 
     34 H           3.777605    0.833856   -0.370643 H         1 <1>         0.217537 
     35 H           0.920389   -2.060898   -1.526669 H         1 <1>         0.062506 
     36 H           2.118220   -4.161743   -1.514035 H         1 <1>         0.064430 
     37 H           3.454972   -0.506934    1.639797 H         1 <1>         0.065076 
     38 H          -1.663829    5.447120    0.038262 H         1 <1>         0.217446 
     39 H           5.418983   -3.560089    1.739273 H         1 <1>         0.217422 
     40 H           4.616673   -6.723019   -0.445022 H         1 <1>         0.052871 
     41 H           2.902734   -6.230438   -0.406045 H         1 <1>         0.052871 
     42 H           3.988909   -5.670908   -1.738403 H         1 <1>         0.052871 
@<TRIPOS>BOND
     1    6    1 1    
     2    1   27 1    
     3    1   28 1    
     4    1   29 1    
     5    3    2 1    
     6    2   30 1    
     7    2   31 1    
     8    2   32 1    
     9    4    3 1    
    10    5    4 1    
    11    4    7 2    
    12    5    6 1    
    13    5   10 2    
    14    7    8 1    
    15    7   22 1    
    16    8    9 2    
    17    8   11 1    
    18    9   10 1    
    19    9   14 1    
    20   10   33 1    
    21   11   12 1    
    22   11   23 2    
    23   12   13 2    
    24   12   15 1    
    25   13   14 1    
    26   13   17 1    
    27   15   34 1    
    28   17   16 1    
    29   16   18 2    
    30   16   35 1    
    31   17   21 2    
    32   18   19 1    
    33   18   36 1    
    34   19   20 2    
    35   19   24 1    
    36   20   21 1    
    37   20   25 1    
    38   21   37 1    
    39   22   38 1    
    40   24   26 1    
    41   25   39 1    
    42   26   40 1    
    43   26   41 1    
    44   26   42 1    
@<TRIPOS>SUBSTRUCTURE
     1 ****        2 TEMP              0 ****  ****    0 ROOT 
@<TRIPOS>NORMAL
@<TRIPOS>FF_PBC
FORCE_FIELD_SETUP_FEATURE Force Field Setup information
v1.0  0 0.000000 0.000000 0.000000 0.000000 0.000000 0.000000 NONE 0 0 0 0 1 0 0 0 0 0 0 0 0
