@<TRIPOS>MOLECULE
MOL002678
   18    18     1     1     0
SMALL
GASTEIGER


@<TRIPOS>ATOM
      1 C           0.177426    0.259449    0.265083 C.ar      1 <1>        -0.047615 
      2 C           0.761281   -1.080664    0.521622 C.ar      1 <1>        -0.058581 
      3 C          -1.222385    0.423741    0.308057 C.ar      1 <1>        -0.058581 
      4 C           1.089831    1.452597   -0.044876 C.3       1 <1>        -0.030525 
      5 C          -0.073033   -2.173787    0.807851 C.ar      1 <1>        -0.061501 
      6 C          -2.101899   -0.730518    0.610309 C.ar      1 <1>        -0.061501 
      7 C           1.224004    1.618979   -1.578307 C.3       1 <1>        -0.061265 
      8 C          -1.543345   -1.994126    0.854050 C.ar      1 <1>        -0.061742 
      9 H           1.836913   -1.219101    0.487098 H         1 <1>         0.062029 
     10 H          -1.664232    1.396425    0.119236 H         1 <1>         0.062029 
     11 H           0.667828    2.369059    0.398585 H         1 <1>         0.031051 
     12 H           2.083754    1.288997    0.401832 H         1 <1>         0.031051 
     13 H           0.356627   -3.152621    0.995360 H         1 <1>         0.061766 
     14 H          -3.178276   -0.595144    0.642584 H         1 <1>         0.061766 
     15 H           1.882325    2.469986   -1.813858 H         1 <1>         0.023287 
     16 H           1.652385    0.706376   -2.021709 H         1 <1>         0.023287 
     17 H           0.235756    1.801157   -2.028939 H         1 <1>         0.023287 
     18 H          -2.184860   -2.840906    1.076122 H         1 <1>         0.061758 
@<TRIPOS>BOND
     1    1    2 1    
     2    1    3 2    
     3    1    4 1    
     4    2    5 2    
     5    2    9 1    
     6    3    6 1    
     7    3   10 1    
     8    4    7 1    
     9    4   11 1    
    10    4   12 1    
    11    5    8 1    
    12    5   13 1    
    13    6    8 2    
    14    6   14 1    
    15    7   15 1    
    16    7   16 1    
    17    7   17 1    
    18    8   18 1    
@<TRIPOS>SUBSTRUCTURE
     1 ****        1 TEMP              0 ****  ****    0 ROOT 
@<TRIPOS>NORMAL
@<TRIPOS>FF_PBC
FORCE_FIELD_SETUP_FEATURE Force Field Setup information
v1.0  0 0.000000 0.000000 0.000000 0.000000 0.000000 0.000000 NONE 0 0 0 0 1 0 0 0 0 0 0 0 0
