@<TRIPOS>MOLECULE
MOL004776
   39    40     1     1     0
SMALL
GASTEIGER


@<TRIPOS>ATOM
      1 C          -1.154250    0.957068    0.181774 C.3       1 <1>        -0.022164 
      2 C          -2.323794    1.186470   -0.823731 C.3       1 <1>        -0.031092 
      3 C          -2.151788    0.014345    0.913405 C.3       1 <1>        -0.014216 
      4 C          -3.320456    0.840851    0.317110 C.3       1 <1>        -0.042376 
      5 C          -2.433717    0.028614   -1.860274 C.3       1 <1>        -0.031135 
      6 C           0.169914    0.323015   -0.362845 C.3       1 <1>        -0.043370 
      7 C          -2.223088   -1.318006    0.195359 C.2       1 <1>        -0.072906 
      8 C          -0.836993    2.251249    0.998295 C.3       1 <1>        -0.058746 
      9 C          -2.371186   -1.304750   -1.138986 C.2       1 <1>        -0.084465 
     10 C           1.169350   -0.051778    0.765221 C.3       1 <1>        -0.034006 
     11 C          -2.129525   -2.568940    1.032014 C.3       1 <1>        -0.043506 
     12 C           2.344486   -0.810139    0.187827 C.2       1 <1>        -0.085268 
     13 C           3.521488   -0.272903   -0.174846 C.2       1 <1>        -0.079617 
     14 C           4.646230   -1.136436   -0.705210 C.3       1 <1>        -0.044050 
     15 C           3.827869    1.207015   -0.086831 C.3       1 <1>        -0.044050 
     16 H          -2.408596    2.196054   -1.257688 H         1 <1>         0.030934 
     17 H          -2.093493   -0.026458    2.012694 H         1 <1>         0.035097 
     18 H          -4.225731    0.277912    0.033848 H         1 <1>         0.027407 
     19 H          -3.613055    1.697753    0.942578 H         1 <1>         0.027407 
     20 H          -1.625249    0.108272   -2.603154 H         1 <1>         0.031025 
     21 H          -3.394951    0.105901   -2.392296 H         1 <1>         0.031025 
     22 H           0.007676   -0.596052   -0.940231 H         1 <1>         0.027372 
     23 H           0.644534    1.043710   -1.046628 H         1 <1>         0.027372 
     24 H          -0.427026    1.986025    1.983502 H         1 <1>         0.023534 
     25 H          -0.093791    2.858397    0.459789 H         1 <1>         0.023534 
     26 H          -1.705684    2.899473    1.173705 H         1 <1>         0.023534 
     27 H          -2.440320   -2.228990   -1.712854 H         1 <1>         0.057172 
     28 H           0.660031   -0.697461    1.498294 H         1 <1>         0.030757 
     29 H           1.521191    0.833901    1.311951 H         1 <1>         0.030757 
     30 H          -2.953669   -2.583633    1.760752 H         1 <1>         0.027445 
     31 H          -1.172708   -2.579200    1.574382 H         1 <1>         0.027445 
     32 H          -2.191089   -3.478450    0.415716 H         1 <1>         0.027445 
     33 H           2.193073   -1.883846    0.065646 H         1 <1>         0.057145 
     34 H           4.418441   -2.212582   -0.671214 H         1 <1>         0.027427 
     35 H           5.552056   -0.961793   -0.105128 H         1 <1>         0.027427 
     36 H           4.856249   -0.864686   -1.750667 H         1 <1>         0.027427 
     37 H           2.940312    1.835123   -0.246656 H         1 <1>         0.027427 
     38 H           4.565253    1.496024   -0.851002 H         1 <1>         0.027427 
     39 H           4.250807    1.427128    0.904581 H         1 <1>         0.027427 
@<TRIPOS>BOND
     1    1    2 1    
     2    1    3 1    
     3    1    6 1    
     4    1    8 1    
     5    2    4 1    
     6    2    5 1    
     7    2   16 1    
     8    3    4 1    
     9    3    7 1    
    10    3   17 1    
    11    4   18 1    
    12    4   19 1    
    13    5    9 1    
    14    5   20 1    
    15    5   21 1    
    16    6   10 1    
    17    6   22 1    
    18    6   23 1    
    19    7    9 2    
    20    7   11 1    
    21    8   24 1    
    22    8   25 1    
    23    8   26 1    
    24    9   27 1    
    25   10   12 1    
    26   10   28 1    
    27   10   29 1    
    28   11   30 1    
    29   11   31 1    
    30   11   32 1    
    31   12   13 2    
    32   12   33 1    
    33   13   14 1    
    34   13   15 1    
    35   14   34 1    
    36   14   35 1    
    37   14   36 1    
    38   15   37 1    
    39   15   38 1    
    40   15   39 1    
@<TRIPOS>SUBSTRUCTURE
     1 ****        1 TEMP              0 ****  ****    0 ROOT 
@<TRIPOS>NORMAL
@<TRIPOS>FF_PBC
FORCE_FIELD_SETUP_FEATURE Force Field Setup information
v1.0  0 0.000000 0.000000 0.000000 0.000000 0.000000 0.000000 NONE 0 0 0 0 1 0 0 0 0 0 0 0 0
