@<TRIPOS>MOLECULE
MOL003542
   44    46     1     1     0
SMALL
GASTEIGER


@<TRIPOS>ATOM
      1 C           1.672792    1.031841    0.085363 C.2       1 <1>         0.123633 
      2 C           2.148003    2.283265    0.213863 C.2       1 <1>         0.151806 
      3 O           3.444142    2.498968    0.458766 O.3       1 <1>        -0.354461 
      4 C           1.238004    3.433343    0.090908 C.2       1 <1>         0.223075 
      5 O           1.683452    4.569405    0.100283 O.2       1 <1>        -0.284270 
      6 C          -0.237221    3.160505   -0.023299 C.ar      1 <1>         0.084831 
      7 C          -1.226750    4.258446   -0.059232 C.ar      1 <1>         0.088419 
      8 O          -0.800138    5.589514   -0.039827 O.3       1 <1>        -0.358954 
      9 C          -2.585665    3.931862   -0.115069 C.ar      1 <1>        -0.001024 
     10 C          -3.005511    2.511658   -0.107678 C.ar      1 <1>         0.080983 
     11 O          -4.364638    2.207053   -0.086968 O.3       1 <1>        -0.359385 
     12 C          -2.063370    1.467605   -0.103076 C.ar      1 <1>         0.017349 
     13 C          -0.616251    1.812593   -0.076977 C.ar      1 <1>         0.102462 
     14 O           0.353529    0.805849   -0.078890 O.3       1 <1>        -0.304849 
     15 C           2.547800   -0.210700    0.126202 C.ar      1 <1>         0.008296 
     16 C           1.876781   -1.498485    0.430997 C.ar      1 <1>        -0.049598 
     17 C           2.593709   -2.697443    0.489757 C.ar      1 <1>        -0.031302 
     18 C           4.055867   -2.712003    0.267944 C.ar      1 <1>         0.072619 
     19 O           4.749734   -3.924554    0.343882 O.3       1 <1>        -0.359832 
     20 C           4.709170   -1.503791   -0.015247 C.ar      1 <1>        -0.031302 
     21 C           3.939005   -0.238630   -0.107809 C.ar      1 <1>        -0.049598 
     22 C          -2.624655    0.032992   -0.081819 C.3       1 <1>        -0.004315 
     23 C          -1.825028   -1.124104   -0.626085 C.2       1 <1>        -0.080815 
     24 C          -2.138349   -2.405649   -0.365932 C.2       1 <1>        -0.079306 
     25 C          -1.296025   -3.542055   -0.896519 C.3       1 <1>        -0.044040 
     26 C          -3.337986   -2.824586    0.460123 C.3       1 <1>        -0.044040 
     27 H           3.665063    3.424249    0.528633 H         1 <1>         0.217537 
     28 H          -1.492313    6.236711    0.025499 H         1 <1>         0.217342 
     29 H          -3.344092    4.702316   -0.167734 H         1 <1>         0.066932 
     30 H          -4.772386    2.582856    0.685465 H         1 <1>         0.217328 
     31 H           0.808420   -1.521720    0.614356 H         1 <1>         0.062504 
     32 H           2.086448   -3.628985    0.700907 H         1 <1>         0.064339 
     33 H           5.628434   -3.898107   -0.020813 H         1 <1>         0.217313 
     34 H           5.782097   -1.482919   -0.169624 H         1 <1>         0.064339 
     35 H           4.489335    0.653837   -0.367180 H         1 <1>         0.062504 
     36 H          -2.854958   -0.143810    0.979872 H         1 <1>         0.035722 
     37 H          -3.556222    0.015242   -0.666509 H         1 <1>         0.035722 
     38 H          -0.971473   -0.901496   -1.266373 H         1 <1>         0.057473 
     39 H          -1.864018   -4.080601   -1.668675 H         1 <1>         0.027427 
     40 H          -0.350120   -3.196946   -1.335024 H         1 <1>         0.027427 
     41 H          -1.057288   -4.240701   -0.081126 H         1 <1>         0.027427 
     42 H          -4.147532   -2.082007    0.467406 H         1 <1>         0.027427 
     43 H          -3.014034   -3.009658    1.493190 H         1 <1>         0.027427 
     44 H          -3.765530   -3.755983    0.060529 H         1 <1>         0.027427 
@<TRIPOS>BOND
     1    1    2 2    
     2    1   14 1    
     3    1   15 1    
     4    2    3 1    
     5    2    4 1    
     6    3   27 1    
     7    4    5 2    
     8    4    6 1    
     9    6    7 1    
    10    6   13 2    
    11    7    8 1    
    12    7    9 2    
    13    8   28 1    
    14    9   10 1    
    15    9   29 1    
    16   10   11 1    
    17   10   12 2    
    18   11   30 1    
    19   12   13 1    
    20   12   22 1    
    21   13   14 1    
    22   15   16 1    
    23   15   21 2    
    24   16   17 2    
    25   16   31 1    
    26   17   18 1    
    27   17   32 1    
    28   18   19 1    
    29   18   20 2    
    30   19   33 1    
    31   20   21 1    
    32   20   34 1    
    33   21   35 1    
    34   22   23 1    
    35   22   36 1    
    36   22   37 1    
    37   23   24 2    
    38   23   38 1    
    39   24   25 1    
    40   24   26 1    
    41   25   39 1    
    42   25   40 1    
    43   25   41 1    
    44   26   42 1    
    45   26   43 1    
    46   26   44 1    
@<TRIPOS>SUBSTRUCTURE
     1 ****        1 TEMP              0 ****  ****    0 ROOT 
@<TRIPOS>NORMAL
@<TRIPOS>FF_PBC
FORCE_FIELD_SETUP_FEATURE Force Field Setup information
v1.0  0 0.000000 0.000000 0.000000 0.000000 0.000000 0.000000 NONE 0 0 0 0 1 0 0 0 0 0 0 0 0
