@<TRIPOS>MOLECULE
MOL005078
   30    29     1     1     0
SMALL
GASTEIGER


@<TRIPOS>ATOM
      1 C          -1.745737   -0.003936    1.257131 C.3       1 <1>        -0.034626 
      2 C          -0.428905   -0.805058    1.007123 C.3       1 <1>        -0.046549 
      3 C          -1.483402    1.514465    1.485214 C.3       1 <1>         0.035586 
      4 C          -2.789575   -0.222873    0.125163 C.3       1 <1>        -0.061942 
      5 C           0.359355   -0.402185   -0.270881 C.3       1 <1>        -0.034272 
      6 C          -2.662886    2.256793    2.061529 C.2       1 <1>         0.259844 
      7 C           1.632266   -1.203266   -0.428070 C.2       1 <1>        -0.085277 
      8 O          -2.559298    3.587584    2.043789 O.3       1 <1>        -0.331261 
      9 O          -3.640272    1.688233    2.523024 O.2       1 <1>        -0.265167 
     10 C           2.527201   -1.028993   -1.415351 C.2       1 <1>        -0.079617 
     11 C           3.783687   -1.870326   -1.492350 C.3       1 <1>        -0.044050 
     12 C           2.378708   -0.004203   -2.520562 C.3       1 <1>        -0.044050 
     13 H          -2.176140   -0.411682    2.190023 H         1 <1>         0.030299 
     14 H           0.233795   -0.674841    1.879191 H         1 <1>         0.027090 
     15 H          -0.677038   -1.877489    0.937162 H         1 <1>         0.027090 
     16 H          -0.654622    1.645523    2.198004 H         1 <1>         0.036864 
     17 H          -1.207079    2.002487    0.538774 H         1 <1>         0.036864 
     18 H          -3.762284    0.209884    0.404508 H         1 <1>         0.023253 
     19 H          -2.936548   -1.298515   -0.058287 H         1 <1>         0.023253 
     20 H          -2.468264    0.253017   -0.812778 H         1 <1>         0.023253 
     21 H          -0.263195   -0.577159   -1.160943 H         1 <1>         0.030749 
     22 H           0.630174    0.662414   -0.214578 H         1 <1>         0.030749 
     23 H           1.825838   -1.973377    0.319473 H         1 <1>         0.057145 
     24 H          -3.325713    4.006729    2.420269 H         1 <1>         0.220208 
     25 H           3.878026   -2.588005   -0.663259 H         1 <1>         0.027427 
     26 H           3.787805   -2.437550   -2.435302 H         1 <1>         0.027427 
     27 H           4.665537   -1.212384   -1.473316 H         1 <1>         0.027427 
     28 H           1.438162    0.561839   -2.493789 H         1 <1>         0.027427 
     29 H           3.208212    0.715692   -2.456213 H         1 <1>         0.027427 
     30 H           2.432193   -0.512820   -3.494796 H         1 <1>         0.027427 
@<TRIPOS>BOND
     1    1    2 1    
     2    1    3 1    
     3    1    4 1    
     4    1   13 1    
     5    2    5 1    
     6    2   14 1    
     7    2   15 1    
     8    3    6 1    
     9    3   16 1    
    10    3   17 1    
    11    4   18 1    
    12    4   19 1    
    13    4   20 1    
    14    5    7 1    
    15    5   21 1    
    16    5   22 1    
    17    6    8 1    
    18    6    9 2    
    19    7   10 2    
    20    7   23 1    
    21    8   24 1    
    22   10   11 1    
    23   10   12 1    
    24   11   25 1    
    25   11   26 1    
    26   11   27 1    
    27   12   28 1    
    28   12   29 1    
    29   12   30 1    
@<TRIPOS>SUBSTRUCTURE
     1 ****        1 TEMP              0 ****  ****    0 ROOT 
@<TRIPOS>NORMAL
@<TRIPOS>FF_PBC
FORCE_FIELD_SETUP_FEATURE Force Field Setup information
v1.0  0 0.000000 0.000000 0.000000 0.000000 0.000000 0.000000 NONE 0 0 0 0 1 0 0 0 0 0 0 0 0
