@<TRIPOS>MOLECULE
MOL006844
   21    23     1     1     0
SMALL
GASTEIGER


@<TRIPOS>ATOM
      1 N           0.206135   -1.761014    0.000002 N.ar      1 <1>        -0.202667 
      2 N           3.679552   -0.226641    0.000026 N.ar      1 <1>        -0.256697 
      3 C          -0.534161    0.416236   -0.000049 C.ar      1 <1>         0.059661 
      4 C           0.941738    0.390175    0.000004 C.ar      1 <1>         0.062557 
      5 C          -0.949839   -0.996071   -0.000004 C.ar      1 <1>         0.214527 
      6 C           1.330085   -0.934074   -0.000009 C.ar      1 <1>         0.232714 
      7 C          -1.460658    1.470919   -0.000131 C.ar      1 <1>        -0.047523 
      8 C          -2.302153   -1.355443    0.000022 C.ar      1 <1>         0.010305 
      9 C           1.939074    1.480624    0.000072 C.ar      1 <1>        -0.029364 
     10 C           2.773456   -1.262056   -0.000026 C.ar      1 <1>         0.099248 
     11 C          -2.900198    1.105406   -0.000133 C.ar      1 <1>        -0.060769 
     12 C          -3.305919   -0.259565   -0.000043 C.ar      1 <1>        -0.055506 
     13 C           3.297468    1.105116    0.000089 C.ar      1 <1>         0.028587 
     14 H           0.228376   -2.771094    0.000028 H         1 <1>         0.453523 
     15 H          -1.138961    2.506973   -0.000187 H         1 <1>         0.062574 
     16 H          -2.607905   -2.396072    0.000080 H         1 <1>         0.068340 
     17 H           1.635686    2.522336    0.000116 H         1 <1>         0.064085 
     18 H           3.114657   -2.291104   -0.000085 H         1 <1>         0.089701 
     19 H          -3.649953    1.890805   -0.000200 H         1 <1>         0.061781 
     20 H          -4.363616   -0.505208   -0.000027 H         1 <1>         0.061965 
     21 H           4.067039    1.870752    0.000154 H         1 <1>         0.082958 
@<TRIPOS>BOND
     1    1    5 1    
     2    6    1 1    
     3    1   14 1    
     4   10    2 2    
     5    2   13 1    
     6    4    3 1    
     7    3    5 1    
     8    3    7 2    
     9    6    4 2    
    10    4    9 1    
    11    5    8 2    
    12    6   10 1    
    13    7   11 1    
    14    7   15 1    
    15    8   12 1    
    16    8   16 1    
    17    9   13 2    
    18    9   17 1    
    19   10   18 1    
    20   11   12 2    
    21   11   19 1    
    22   12   20 1    
    23   13   21 1    
@<TRIPOS>SUBSTRUCTURE
     1 ****        3 TEMP              0 ****  ****    0 ROOT 
@<TRIPOS>NORMAL
@<TRIPOS>FF_PBC
FORCE_FIELD_SETUP_FEATURE Force Field Setup information
v1.0  0 0.000000 0.000000 0.000000 0.000000 0.000000 0.000000 NONE 0 0 0 0 1 0 0 0 0 0 0 0 0
