@<TRIPOS>MOLECULE
MOL004077
   44    46     1     1     0
SMALL
GASTEIGER


@<TRIPOS>ATOM
      1 O           1.983962    0.967954    0.257019 O.3       1 <1>        -0.307345 
      2 O          -3.248823    2.508514    0.288314 O.2       1 <1>        -0.292374 
      3 O           3.600930    0.122874   -1.073185 O.2       1 <1>        -0.265263 
      4 C          -1.277921   -0.344748   -0.104128 C.3       1 <1>         0.009823 
      5 C          -0.642209   -1.281389   -1.177256 C.3       1 <1>        -0.019328 
      6 C           0.867485   -1.077461   -0.811270 C.3       1 <1>        -0.004259 
      7 C          -1.091689   -0.852874    1.370156 C.3       1 <1>        -0.033515 
      8 C          -0.376020    0.828514   -0.331459 C.2       1 <1>        -0.026788 
      9 C           1.035347    0.473917   -0.706221 C.3       1 <1>         0.093565 
     10 C           1.216644   -1.759880    0.542920 C.3       1 <1>        -0.046748 
     11 C          -2.696034    0.250219   -0.354891 C.3       1 <1>         0.020308 
     12 C           0.400115   -1.150982    1.714384 C.3       1 <1>        -0.049278 
     13 C          -0.885241   -0.803215   -2.652498 C.3       1 <1>        -0.058649 
     14 C          -1.156914   -2.754351   -1.116424 C.3       1 <1>        -0.058649 
     15 C          -0.980520    2.010133   -0.219564 C.2       1 <1>        -0.005769 
     16 C          -2.403623    1.695964   -0.048073 C.2       1 <1>         0.159879 
     17 C          -1.633105    0.126552    2.459455 C.3       1 <1>        -0.061590 
     18 C          -0.367567    3.380320   -0.302379 C.3       1 <1>        -0.036347 
     19 C           3.259437    0.707123   -0.056569 C.2       1 <1>         0.259602 
     20 C           4.265395    1.168122    0.959874 C.3       1 <1>         0.021453 
     21 H           1.531831   -1.499655   -1.583884 H         1 <1>         0.033461 
     22 H          -1.682330   -1.775056    1.483255 H         1 <1>         0.030682 
     23 H           1.237056    0.927032   -1.691559 H         1 <1>         0.065243 
     24 H           1.061067   -2.846074    0.480482 H         1 <1>         0.026910 
     25 H           2.290197   -1.633808    0.758174 H         1 <1>         0.026910 
     26 H          -3.029190    0.210616   -1.399436 H         1 <1>         0.035379 
     27 H          -3.476826   -0.205789    0.270179 H         1 <1>         0.035379 
     28 H           0.882505   -0.209854    2.018062 H         1 <1>         0.026822 
     29 H           0.459156   -1.822475    2.587609 H         1 <1>         0.026822 
     30 H          -0.608474   -3.364535   -1.850516 H         1 <1>         0.023535 
     31 H          -1.060593   -3.247362   -0.142839 H         1 <1>         0.023535 
     32 H          -2.227370   -2.780861   -1.371862 H         1 <1>         0.023535 
     33 H          -1.897977   -1.054739   -3.000830 H         1 <1>         0.023535 
     34 H          -0.183644   -1.316999   -3.327547 H         1 <1>         0.023535 
     35 H          -0.756386    0.277942   -2.800992 H         1 <1>         0.023535 
     36 H          -1.144542    1.109669    2.383996 H         1 <1>         0.023268 
     37 H          -1.420487   -0.278443    3.461559 H         1 <1>         0.023268 
     38 H          -2.719890    0.277682    2.401928 H         1 <1>         0.023268 
     39 H          -0.814662    3.929091   -1.144354 H         1 <1>         0.027859 
     40 H           0.721188    3.323825   -0.449083 H         1 <1>         0.027859 
     41 H          -0.573611    3.924115    0.631384 H         1 <1>         0.027859 
     42 H           3.968817    2.145601    1.368655 H         1 <1>         0.033023 
     43 H           5.261083    1.260827    0.500951 H         1 <1>         0.033023 
     44 H           4.311532    0.434243    1.777764 H         1 <1>         0.033023 
@<TRIPOS>BOND
     1    9    1 1    
     2    1   19 1    
     3   16    2 2    
     4   19    3 2    
     5    4    5 1    
     6    4    7 1    
     7    4    8 1    
     8   11    4 1    
     9    5    6 1    
    10    5   13 1    
    11    5   14 1    
    12    9    6 1    
    13    6   10 1    
    14    6   21 1    
    15    7   12 1    
    16    7   17 1    
    17    7   22 1    
    18    8    9 1    
    19    8   15 2    
    20    9   23 1    
    21   12   10 1    
    22   10   24 1    
    23   10   25 1    
    24   11   16 1    
    25   11   26 1    
    26   11   27 1    
    27   12   28 1    
    28   12   29 1    
    29   13   33 1    
    30   13   34 1    
    31   13   35 1    
    32   14   30 1    
    33   14   31 1    
    34   14   32 1    
    35   15   16 1    
    36   15   18 1    
    37   17   36 1    
    38   17   37 1    
    39   17   38 1    
    40   18   39 1    
    41   18   40 1    
    42   18   41 1    
    43   19   20 1    
    44   20   42 1    
    45   20   43 1    
    46   20   44 1    
@<TRIPOS>SUBSTRUCTURE
     1 ****        4 TEMP              0 ****  ****    0 ROOT 
@<TRIPOS>NORMAL
@<TRIPOS>FF_PBC
FORCE_FIELD_SETUP_FEATURE Force Field Setup information
v1.0  0 0.000000 0.000000 0.000000 0.000000 0.000000 0.000000 NONE 0 0 0 0 1 0 0 0 0 0 0 0 0
