@<TRIPOS>MOLECULE
MOL002027
   71    70     1     1     0
SMALL
GASTEIGER


@<TRIPOS>ATOM
      1 C          -5.734415   11.372905   -0.000024 C.2       1 <1>         0.261905 
      2 C          -4.445077   10.593616   -0.000125 C.3       1 <1>         0.033189 
      3 C          -4.676280    9.058186    0.000051 C.3       1 <1>        -0.044055 
      4 C          -3.331457    8.280773   -0.000064 C.3       1 <1>        -0.052596 
      5 C          -3.568303    6.745725    0.000085 C.3       1 <1>        -0.053045 
      6 C          -2.226168    5.963445   -0.000048 C.3       1 <1>        -0.053057 
      7 C          -2.469251    4.429343    0.000110 C.3       1 <1>        -0.053057 
      8 C          -1.131480    3.639769   -0.000029 C.3       1 <1>        -0.053057 
      9 C          -1.384881    2.107115    0.000137 C.3       1 <1>        -0.053057 
     10 C          -0.052627    1.308566   -0.000058 C.3       1 <1>        -0.053057 
     11 C          -0.313917   -0.222830    0.000099 C.3       1 <1>        -0.053057 
     12 C           1.015765   -1.025735   -0.000105 C.3       1 <1>        -0.053057 
     13 C           0.752511   -2.556753    0.000087 C.3       1 <1>        -0.053057 
     14 C           2.082239   -3.359700   -0.000093 C.3       1 <1>        -0.053057 
     15 C           1.819547   -4.890734    0.000117 C.3       1 <1>        -0.053057 
     16 C           3.149781   -5.692863   -0.000071 C.3       1 <1>        -0.053057 
     17 C           2.888989   -7.224334    0.000118 C.3       1 <1>        -0.053057 
     18 C           4.220745   -8.024028   -0.000080 C.3       1 <1>        -0.053057 
     19 C           3.964098   -9.556118    0.000115 C.3       1 <1>        -0.053065 
     20 C           5.298149  -10.351969   -0.000080 C.3       1 <1>        -0.053306 
     21 C           5.045548  -11.884397    0.000130 C.3       1 <1>        -0.055911 
     22 C           6.380284  -12.674460   -0.000088 C.3       1 <1>        -0.065276 
     23 O          -6.824292   10.821240    0.000173 O.2       1 <1>        -0.264985 
     24 O          -5.582776   12.705756   -0.000171 O.3       1 <1>        -0.318522 
     25 C          -6.826928   13.433363   -0.000045 C.3       1 <1>         0.045865 
     26 H          -3.870967   10.883702   -0.894000 H         1 <1>         0.036606 
     27 H          -3.870716   10.883872    0.893508 H         1 <1>         0.036606 
     28 H          -5.259735    8.781718    0.893996 H         1 <1>         0.027004 
     29 H          -5.260037    8.781544   -0.893712 H         1 <1>         0.027004 
     30 H          -2.748896    8.559424   -0.893695 H         1 <1>         0.026540 
     31 H          -2.748598    8.559606    0.893267 H         1 <1>         0.026540 
     32 H          -4.151460    6.467676    0.893490 H         1 <1>         0.026529 
     33 H          -4.151816    6.467491   -0.893075 H         1 <1>         0.026529 
     34 H          -1.642592    6.239898   -0.893651 H         1 <1>         0.026528 
     35 H          -1.642240    6.240082    0.893246 H         1 <1>         0.026528 
     36 H          -3.053662    4.154063    0.893498 H         1 <1>         0.026528 
     37 H          -3.054041    4.153875   -0.893037 H         1 <1>         0.026528 
     38 H          -0.546289    3.913102   -0.893542 H         1 <1>         0.026528 
     39 H          -0.545916    3.913291    0.893135 H         1 <1>         0.026528 
     40 H          -1.971027    1.835744    0.893606 H         1 <1>         0.026528 
     41 H          -1.971455    1.835549   -0.893055 H         1 <1>         0.026528 
     42 H           0.534124    1.578428   -0.893592 H         1 <1>         0.026528 
     43 H           0.534552    1.578624    0.893157 H         1 <1>         0.026528 
     44 H          -0.901157   -0.492016    0.893521 H         1 <1>         0.026528 
     45 H          -0.901590   -0.492202   -0.892921 H         1 <1>         0.026528 
     46 H           1.603080   -0.757148   -0.893514 H         1 <1>         0.026528 
     47 H           1.603549   -0.756943    0.893043 H         1 <1>         0.026528 
     48 H           0.165076   -2.825354    0.893559 H         1 <1>         0.026528 
     49 H           0.164641   -2.825546   -0.892979 H         1 <1>         0.026528 
     50 H           2.669566   -3.091003   -0.893577 H         1 <1>         0.026528 
     51 H           2.670020   -3.090798    0.893064 H         1 <1>         0.026528 
     52 H           1.232292   -5.159549    0.893621 H         1 <1>         0.026528 
     53 H           1.231841   -5.159756   -0.893067 H         1 <1>         0.026528 
     54 H           3.736989   -5.423750   -0.893537 H         1 <1>         0.026528 
     55 H           3.737429   -5.423544    0.893017 H         1 <1>         0.026528 
     56 H           2.302223   -7.494217    0.893594 H         1 <1>         0.026528 
     57 H           2.301773   -7.494427   -0.893027 H         1 <1>         0.026528 
     58 H           4.807373   -7.753700   -0.893541 H         1 <1>         0.026528 
     59 H           4.807819   -7.753492    0.893044 H         1 <1>         0.026528 
     60 H           3.378093   -9.827571    0.893634 H         1 <1>         0.026528 
     61 H           3.377654   -9.827777   -0.893049 H         1 <1>         0.026528 
     62 H           5.884296  -10.080752   -0.893549 H         1 <1>         0.026520 
     63 H           5.884734  -10.080552    0.893053 H         1 <1>         0.026520 
     64 H           4.462129  -12.162481    0.893747 H         1 <1>         0.026265 
     65 H           4.461702  -12.162683   -0.893157 H         1 <1>         0.026265 
     66 H           6.179966  -13.757608    0.000074 H         1 <1>         0.022978 
     67 H           6.972422  -12.428000   -0.895310 H         1 <1>         0.022978 
     68 H           6.972840  -12.427812    0.894801 H         1 <1>         0.022978 
     69 H          -6.589565   14.507386   -0.000179 H         1 <1>         0.052962 
     70 H          -7.422206   13.209031   -0.899741 H         1 <1>         0.052962 
     71 H          -7.421925   13.209199    0.899891 H         1 <1>         0.052962 
@<TRIPOS>BOND
     1    1    2 1    
     2    1   23 2    
     3    1   24 1    
     4    2    3 1    
     5    2   26 1    
     6    2   27 1    
     7    3    4 1    
     8    3   28 1    
     9    3   29 1    
    10    4    5 1    
    11    4   30 1    
    12    4   31 1    
    13    5    6 1    
    14    5   32 1    
    15    5   33 1    
    16    6    7 1    
    17    6   34 1    
    18    6   35 1    
    19    7    8 1    
    20    7   36 1    
    21    7   37 1    
    22    8    9 1    
    23    8   38 1    
    24    8   39 1    
    25    9   10 1    
    26    9   40 1    
    27    9   41 1    
    28   10   11 1    
    29   10   42 1    
    30   10   43 1    
    31   11   12 1    
    32   11   44 1    
    33   11   45 1    
    34   12   13 1    
    35   12   46 1    
    36   12   47 1    
    37   13   14 1    
    38   13   48 1    
    39   13   49 1    
    40   14   15 1    
    41   14   50 1    
    42   14   51 1    
    43   15   16 1    
    44   15   52 1    
    45   15   53 1    
    46   16   17 1    
    47   16   54 1    
    48   16   55 1    
    49   17   18 1    
    50   17   56 1    
    51   17   57 1    
    52   18   19 1    
    53   18   58 1    
    54   18   59 1    
    55   19   20 1    
    56   19   60 1    
    57   19   61 1    
    58   20   21 1    
    59   20   62 1    
    60   20   63 1    
    61   21   22 1    
    62   21   64 1    
    63   21   65 1    
    64   22   66 1    
    65   22   67 1    
    66   22   68 1    
    67   24   25 1    
    68   25   69 1    
    69   25   70 1    
    70   25   71 1    
@<TRIPOS>SUBSTRUCTURE
     1 ****        1 TEMP              0 ****  ****    0 ROOT 
@<TRIPOS>NORMAL
@<TRIPOS>FF_PBC
FORCE_FIELD_SETUP_FEATURE Force Field Setup information
v1.0  0 0.000000 0.000000 0.000000 0.000000 0.000000 0.000000 NONE 0 0 0 0 1 0 0 0 0 0 0 0 0
