@<TRIPOS>MOLECULE
MOL012344
   39    40     1     1     0
SMALL
GASTEIGER


@<TRIPOS>ATOM
      1 C           0.018020    0.633847    0.831430 C.3       1 <1>        -0.011009 
      2 C           1.482941    1.001448    0.381995 C.3       1 <1>        -0.028074 
      3 C          -0.233715   -0.887356    1.065892 C.3       1 <1>        -0.013117 
      4 C           1.713055    0.809011   -1.152946 C.3       1 <1>        -0.047033 
      5 C          -1.724088   -1.117701    1.427061 C.3       1 <1>        -0.042286 
      6 C           0.190489   -1.843075   -0.034452 C.2       1 <1>        -0.072943 
      7 C           1.641970   -0.639185   -1.711376 C.3       1 <1>        -0.048861 
      8 C          -1.090184    1.258977    0.003359 C.2       1 <1>        -0.080862 
      9 C           0.279855   -1.329727   -1.456450 C.3       1 <1>        -0.031697 
     10 C           2.545492    0.193925    1.193357 C.3       1 <1>        -0.059259 
     11 C           1.761348    2.510865    0.699954 C.3       1 <1>        -0.059259 
     12 C          -2.635276   -0.695165    0.252772 C.3       1 <1>        -0.031439 
     13 C          -2.269670    0.675762   -0.265265 C.2       1 <1>        -0.076213 
     14 C           0.484235   -3.120012    0.253760 C.2       1 <1>        -0.099165 
     15 C          -3.323449    1.349179   -1.117628 C.3       1 <1>        -0.043778 
     16 H          -0.127161    1.100257    1.820643 H         1 <1>         0.035396 
     17 H           0.325360   -1.175997    1.973668 H         1 <1>         0.035144 
     18 H           2.716028    1.190371   -1.408365 H         1 <1>         0.027070 
     19 H           0.988170    1.424042   -1.708835 H         1 <1>         0.027070 
     20 H          -1.982935   -0.511305    2.311960 H         1 <1>         0.027417 
     21 H          -1.908592   -2.175645    1.679039 H         1 <1>         0.027417 
     22 H           2.459003   -1.264671   -1.318703 H         1 <1>         0.026847 
     23 H           1.790813   -0.570437   -2.803840 H         1 <1>         0.026847 
     24 H          -0.932838    2.257821   -0.396686 H         1 <1>         0.057467 
     25 H           0.203279   -2.187658   -2.144998 H         1 <1>         0.030999 
     26 H          -0.540253   -0.653159   -1.726435 H         1 <1>         0.030999 
     27 H           2.489396   -0.887765    1.016042 H         1 <1>         0.023517 
     28 H           3.564665    0.510409    0.923397 H         1 <1>         0.023517 
     29 H           2.410453    0.366593    2.272190 H         1 <1>         0.023517 
     30 H           2.798309    2.782700    0.448536 H         1 <1>         0.023517 
     31 H           1.108880    3.186578    0.130930 H         1 <1>         0.023517 
     32 H           1.619204    2.725467    1.770325 H         1 <1>         0.023517 
     33 H          -3.679399   -0.698265    0.606259 H         1 <1>         0.031008 
     34 H          -2.559534   -1.422213   -0.570576 H         1 <1>         0.031008 
     35 H           0.420556   -3.503266    1.271759 H         1 <1>         0.053449 
     36 H           0.799419   -3.826320   -0.513548 H         1 <1>         0.053449 
     37 H          -4.225981    1.527528   -0.514054 H         1 <1>         0.027436 
     38 H          -3.585061    0.688868   -1.958124 H         1 <1>         0.027436 
     39 H          -2.993700    2.313473   -1.532741 H         1 <1>         0.027436 
@<TRIPOS>BOND
     1    1    2 1    
     2    1    3 1    
     3    1    8 1    
     4    1   16 1    
     5    2    4 1    
     6    2   10 1    
     7    2   11 1    
     8    3    5 1    
     9    3    6 1    
    10    3   17 1    
    11    4    7 1    
    12    4   18 1    
    13    4   19 1    
    14    5   12 1    
    15    5   20 1    
    16    5   21 1    
    17    6    9 1    
    18    6   14 2    
    19    7    9 1    
    20    7   22 1    
    21    7   23 1    
    22    8   13 2    
    23    8   24 1    
    24    9   25 1    
    25    9   26 1    
    26   10   27 1    
    27   10   28 1    
    28   10   29 1    
    29   11   30 1    
    30   11   31 1    
    31   11   32 1    
    32   12   13 1    
    33   12   33 1    
    34   12   34 1    
    35   13   15 1    
    36   14   35 1    
    37   14   36 1    
    38   15   37 1    
    39   15   38 1    
    40   15   39 1    
@<TRIPOS>SUBSTRUCTURE
     1 ****        1 TEMP              0 ****  ****    0 ROOT 
@<TRIPOS>NORMAL
@<TRIPOS>FF_PBC
FORCE_FIELD_SETUP_FEATURE Force Field Setup information
v1.0  0 0.000000 0.000000 0.000000 0.000000 0.000000 0.000000 NONE 0 0 0 0 1 0 0 0 0 0 0 0 0
