@<TRIPOS>MOLECULE
MOL002114
   82    86     1     1     0
SMALL
GASTEIGER


@<TRIPOS>ATOM
      1 O           2.996305    0.287178    3.461482 O.2       1 <1>        -0.264536 
      2 O           2.661287    2.424349    3.281969 O.3       1 <1>        -0.330836 
      3 O          -6.385433   -2.910942   -1.455228 O.3       1 <1>        -0.388697 
      4 O          -6.073569   -0.223377   -0.572536 O.3       1 <1>        -0.389202 
      5 C          -0.289845   -0.627843    0.616966 C.3       1 <1>        -0.019371 
      6 C          -1.375173   -0.135022   -0.405594 C.3       1 <1>        -0.025655 
      7 C           1.162514   -0.337076    0.021204 C.3       1 <1>        -0.005095 
      8 C          -2.884063   -0.563206   -0.147463 C.3       1 <1>        -0.022627 
      9 C           1.286736    1.178541   -0.066311 C.2       1 <1>        -0.062908 
     10 C           2.617618    1.863045    0.227586 C.3       1 <1>        -0.004222 
     11 C           3.538613    1.167338    1.283989 C.3       1 <1>         0.062460 
     12 C          -2.907259   -2.136835   -0.051162 C.3       1 <1>        -0.027669 
     13 C          -1.141398    1.367231   -0.778362 C.3       1 <1>        -0.030613 
     14 C          -0.498336   -2.165092    0.860230 C.3       1 <1>        -0.046268 
     15 C           2.267480   -1.041230    0.885850 C.3       1 <1>        -0.042415 
     16 C           0.229168    1.913203   -0.446912 C.2       1 <1>        -0.083635 
     17 C          -4.299779   -2.878889   -0.151629 C.3       1 <1>        -0.003164 
     18 C           3.653435   -0.334983    0.879932 C.3       1 <1>        -0.036973 
     19 C          -3.727719   -0.148187   -1.401768 C.3       1 <1>        -0.018438 
     20 C          -1.969050   -2.618670    1.097406 C.3       1 <1>        -0.048607 
     21 C           3.323865    2.132242   -1.138238 C.3       1 <1>        -0.040331 
     22 C          -0.445321    0.147354    1.977848 C.3       1 <1>        -0.058491 
     23 C           1.389290   -0.808096   -1.463867 C.3       1 <1>        -0.055323 
     24 C           3.041521    1.263179    2.732088 C.2       1 <1>         0.266382 
     25 C           4.952712    1.835777    1.326302 C.3       1 <1>        -0.037288 
     26 C          -5.058178   -2.345867   -1.412736 C.3       1 <1>         0.086418 
     27 C          -3.500461    0.151950    1.107544 C.3       1 <1>        -0.058928 
     28 C           4.696448    2.861150   -1.031173 C.3       1 <1>        -0.034278 
     29 C          -5.138852   -0.794357   -1.503721 C.3       1 <1>         0.082079 
     30 C           5.607467    2.050798   -0.064038 C.3       1 <1>        -0.046865 
     31 C          -4.082244   -4.416128   -0.395421 C.3       1 <1>        -0.057105 
     32 C          -5.197351   -2.801220    1.125334 C.3       1 <1>        -0.057105 
     33 C           5.368007    2.889660   -2.440247 C.3       1 <1>        -0.059792 
     34 C           4.528751    4.342999   -0.569171 C.3       1 <1>        -0.059792 
     35 H          -1.118230   -0.675471   -1.324860 H         1 <1>         0.031461 
     36 H           2.374554    2.862437    0.604483 H         1 <1>         0.035619 
     37 H           2.758278    3.208032    2.760975 H         1 <1>         0.220226 
     38 H          -6.869834   -2.696389   -2.246373 H         1 <1>         0.209912 
     39 H          -6.935922   -0.625293   -0.625941 H         1 <1>         0.209888 
     40 H          -2.409759   -2.487914   -0.969500 H         1 <1>         0.031212 
     41 H          -1.320071    1.534432   -1.853849 H         1 <1>         0.031042 
     42 H          -1.829419    2.034564   -0.249474 H         1 <1>         0.031042 
     43 H           0.089343   -2.508348    1.725893 H         1 <1>         0.027096 
     44 H          -0.145992   -2.741912   -0.004210 H         1 <1>         0.027096 
     45 H           2.405687   -2.074464    0.525694 H         1 <1>         0.027403 
     46 H           1.962125   -1.154412    1.930255 H         1 <1>         0.027403 
     47 H           0.335763    2.995816   -0.541033 H         1 <1>         0.057198 
     48 H           4.318944   -0.860488    1.585646 H         1 <1>         0.027586 
     49 H           4.111168   -0.450138   -0.109572 H         1 <1>         0.027586 
     50 H          -3.852449    0.945796   -1.430002 H         1 <1>         0.029632 
     51 H          -3.193299   -0.440742   -2.320599 H         1 <1>         0.029632 
     52 H          -1.939277   -3.717457    1.137617 H         1 <1>         0.026846 
     53 H          -2.324558   -2.296699    2.083105 H         1 <1>         0.026846 
     54 H           2.658981    2.729496   -1.783989 H         1 <1>         0.027642 
     55 H           3.494402    1.185765   -1.661313 H         1 <1>         0.027642 
     56 H          -1.024090    1.072756    1.869777 H         1 <1>         0.023542 
     57 H           0.507773    0.474586    2.405716 H         1 <1>         0.023542 
     58 H          -0.922220   -0.462388    2.756466 H         1 <1>         0.023542 
     59 H           1.017697   -1.820669   -1.659759 H         1 <1>         0.023829 
     60 H           0.924584   -0.135311   -2.201598 H         1 <1>         0.023829 
     61 H           2.453890   -0.845253   -1.720835 H         1 <1>         0.023829 
     62 H           4.908910    2.814511    1.824865 H         1 <1>         0.027577 
     63 H           5.627086    1.212266    1.937031 H         1 <1>         0.027577 
     64 H          -4.502252   -2.689613   -2.304367 H         1 <1>         0.062439 
     65 H          -3.364756    1.237411    1.090746 H         1 <1>         0.023526 
     66 H          -3.111728   -0.202678    2.063326 H         1 <1>         0.023526 
     67 H          -4.577913    0.036453    1.175010 H         1 <1>         0.023526 
     68 H          -5.538160   -0.538918   -2.504257 H         1 <1>         0.061925 
     69 H           6.565009    2.582239    0.066153 H         1 <1>         0.027072 
     70 H           5.845457    1.071785   -0.506886 H         1 <1>         0.027072 
     71 H          -5.022976   -4.899112   -0.702523 H         1 <1>         0.023588 
     72 H          -3.750505   -4.939583    0.512563 H         1 <1>         0.023588 
     73 H          -3.347544   -4.613922   -1.190775 H         1 <1>         0.023588 
     74 H          -6.019844   -3.530125    1.058550 H         1 <1>         0.023588 
     75 H          -5.683430   -1.837443    1.279467 H         1 <1>         0.023588 
     76 H          -4.617319   -3.044985    2.026209 H         1 <1>         0.023588 
     77 H           6.346864    3.391386   -2.394043 H         1 <1>         0.023499 
     78 H           4.736571    3.432109   -3.160710 H         1 <1>         0.023499 
     79 H           5.528751    1.872626   -2.829963 H         1 <1>         0.023499 
     80 H           5.511474    4.836088   -0.516645 H         1 <1>         0.023499 
     81 H           4.055400    4.449030    0.414374 H         1 <1>         0.023499 
     82 H           3.910013    4.896170   -1.292217 H         1 <1>         0.023499 
@<TRIPOS>BOND
     1   24    1 2    
     2   24    2 1    
     3    2   37 1    
     4   26    3 1    
     5    3   38 1    
     6   29    4 1    
     7    4   39 1    
     8    6    5 1    
     9    5    7 1    
    10    5   14 1    
    11    5   22 1    
    12    8    6 1    
    13    6   13 1    
    14    6   35 1    
    15    7    9 1    
    16    7   15 1    
    17    7   23 1    
    18    8   12 1    
    19   19    8 1    
    20    8   27 1    
    21    9   10 1    
    22   16    9 2    
    23   10   11 1    
    24   10   21 1    
    25   10   36 1    
    26   18   11 1    
    27   11   24 1    
    28   11   25 1    
    29   12   17 1    
    30   12   20 1    
    31   12   40 1    
    32   13   16 1    
    33   13   41 1    
    34   13   42 1    
    35   20   14 1    
    36   14   43 1    
    37   14   44 1    
    38   15   18 1    
    39   15   45 1    
    40   15   46 1    
    41   16   47 1    
    42   17   26 1    
    43   17   31 1    
    44   17   32 1    
    45   18   48 1    
    46   18   49 1    
    47   19   29 1    
    48   19   50 1    
    49   19   51 1    
    50   20   52 1    
    51   20   53 1    
    52   21   28 1    
    53   21   54 1    
    54   21   55 1    
    55   22   56 1    
    56   22   57 1    
    57   22   58 1    
    58   23   59 1    
    59   23   60 1    
    60   23   61 1    
    61   25   30 1    
    62   25   62 1    
    63   25   63 1    
    64   26   29 1    
    65   26   64 1    
    66   27   65 1    
    67   27   66 1    
    68   27   67 1    
    69   28   30 1    
    70   28   33 1    
    71   28   34 1    
    72   29   68 1    
    73   30   69 1    
    74   30   70 1    
    75   31   71 1    
    76   31   72 1    
    77   31   73 1    
    78   32   74 1    
    79   32   75 1    
    80   32   76 1    
    81   33   77 1    
    82   33   78 1    
    83   33   79 1    
    84   34   80 1    
    85   34   81 1    
    86   34   82 1    
@<TRIPOS>SUBSTRUCTURE
     1 ****        5 TEMP              0 ****  ****    0 ROOT 
@<TRIPOS>NORMAL
@<TRIPOS>FF_PBC
FORCE_FIELD_SETUP_FEATURE Force Field Setup information
v1.0  0 0.000000 0.000000 0.000000 0.000000 0.000000 0.000000 NONE 0 0 0 0 1 0 0 0 0 0 0 0 0
