@<TRIPOS>MOLECULE
MOL001903
   80    84     1     1     0
SMALL
GASTEIGER


@<TRIPOS>ATOM
      1 C          -4.364226   -2.941095   -1.244789 C.3       1 <1>         0.060638 
      2 C          -4.192616   -1.431371   -1.530408 C.3       1 <1>        -0.025820 
      3 C          -4.152786   -0.670728   -0.182776 C.3       1 <1>        -0.044330 
      4 C          -3.111138   -3.516743   -0.499111 C.3       1 <1>        -0.005578 
      5 C          -3.422400   -5.017011   -0.152266 C.3       1 <1>        -0.057190 
      6 C          -1.929154   -3.592099   -1.524420 C.3       1 <1>        -0.057190 
      7 C          -2.857431   -2.677382    0.828713 C.3       1 <1>        -0.027446 
      8 C          -1.584131   -3.067698    1.652662 C.3       1 <1>        -0.048587 
      9 C          -0.263113   -2.425290    1.148878 C.3       1 <1>        -0.045876 
     10 C          -0.274851   -0.866345    0.997792 C.3       1 <1>        -0.012655 
     11 C          -0.146661   -0.217863    2.428515 C.3       1 <1>        -0.058099 
     12 C           0.950549   -0.354895    0.090849 C.3       1 <1>        -0.004308 
     13 C           0.985597   -0.914018   -1.382995 C.3       1 <1>        -0.055301 
     14 C           2.305869   -0.749488    0.778747 C.3       1 <1>        -0.042393 
     15 C           3.557440    0.021890    0.282814 C.3       1 <1>        -0.036972 
     16 C           3.333922    1.560347    0.355499 C.3       1 <1>         0.062471 
     17 C           3.095069    1.975621    1.795335 C.2       1 <1>         0.266382 
     18 C           4.626752    2.265673   -0.155268 C.3       1 <1>        -0.037288 
     19 C           4.438052    3.798767   -0.280724 C.3       1 <1>        -0.046865 
     20 C           3.270561    4.171868   -1.240668 C.3       1 <1>        -0.034277 
     21 C           3.047320    5.716260   -1.180271 C.3       1 <1>        -0.059792 
     22 C           3.607315    3.818716   -2.725774 C.3       1 <1>        -0.059792 
     23 C           1.973452    3.455836   -0.749757 C.3       1 <1>        -0.040320 
     24 C           2.117301    1.913128   -0.550424 C.3       1 <1>        -0.003824 
     25 C           0.855004    1.161237   -0.115645 C.2       1 <1>        -0.055705 
     26 C          -0.321902    1.785876    0.054208 C.2       1 <1>        -0.018827 
     27 C          -1.579822    1.097035    0.390620 C.2       1 <1>         0.160199 
     28 C          -1.643436   -0.413554    0.369390 C.3       1 <1>         0.033332 
     29 C          -3.005147   -1.103906    0.807275 C.3       1 <1>        -0.018250 
     30 C          -3.531161   -0.638300    2.222798 C.3       1 <1>        -0.058618 
     31 O           2.094423    2.568749    2.164522 O.2       1 <1>        -0.264536 
     32 O           4.061344    1.647081    2.656516 O.3       1 <1>        -0.330836 
     33 O          -2.535846    1.795864    0.678815 O.2       1 <1>        -0.292347 
     34 O          -5.596068   -3.085059   -0.508775 O.3       1 <1>        -0.391248 
     35 H          -4.510954   -3.438139   -2.221134 H         1 <1>         0.059852 
     36 H          -5.072535   -1.087742   -2.103688 H         1 <1>         0.029038 
     37 H          -3.313692   -1.222322   -2.155490 H         1 <1>         0.029038 
     38 H          -4.104505    0.403406   -0.410446 H         1 <1>         0.027160 
     39 H          -5.149208   -0.834097    0.257389 H         1 <1>         0.027160 
     40 H          -2.533509   -5.564550    0.191109 H         1 <1>         0.023587 
     41 H          -3.792555   -5.543831   -1.045558 H         1 <1>         0.023587 
     42 H          -4.180331   -5.125858    0.637388 H         1 <1>         0.023587 
     43 H          -2.270208   -4.022416   -2.477750 H         1 <1>         0.023587 
     44 H          -1.484379   -2.622183   -1.758985 H         1 <1>         0.023587 
     45 H          -1.130718   -4.261934   -1.178814 H         1 <1>         0.023587 
     46 H          -3.705369   -3.009499    1.449396 H         1 <1>         0.031221 
     47 H          -1.683183   -2.784078    2.708792 H         1 <1>         0.026846 
     48 H          -1.461255   -4.160167    1.666037 H         1 <1>         0.026846 
     49 H           0.546595   -2.741383    1.825537 H         1 <1>         0.027107 
     50 H          -0.035727   -2.907166    0.206895 H         1 <1>         0.027107 
     51 H          -1.101604    0.022654    2.888453 H         1 <1>         0.023553 
     52 H           0.386672   -0.855846    3.148144 H         1 <1>         0.023553 
     53 H           0.377604    0.744615    2.400383 H         1 <1>         0.023553 
     54 H           1.891350   -0.612121   -1.917162 H         1 <1>         0.023829 
     55 H           0.159333   -0.541887   -2.003588 H         1 <1>         0.023829 
     56 H           1.003431   -2.006139   -1.457914 H         1 <1>         0.023829 
     57 H           2.485720   -1.827480    0.641743 H         1 <1>         0.027404 
     58 H           2.293377   -0.566850    1.859556 H         1 <1>         0.027404 
     59 H           3.814667   -0.286868   -0.741033 H         1 <1>         0.027586 
     60 H           4.425174   -0.251113    0.907547 H         1 <1>         0.027586 
     61 H           5.457554    2.071201    0.542962 H         1 <1>         0.027577 
     62 H           4.933469    1.849561   -1.125520 H         1 <1>         0.027577 
     63 H           5.376100    4.253677   -0.639926 H         1 <1>         0.027072 
     64 H           4.232078    4.206517    0.722610 H         1 <1>         0.027072 
     65 H           3.947755    6.254694   -1.514641 H         1 <1>         0.023499 
     66 H           2.815745    6.049890   -0.156918 H         1 <1>         0.023499 
     67 H           2.208830    6.012314   -1.830196 H         1 <1>         0.023499 
     68 H           2.781453    4.130786   -3.384261 H         1 <1>         0.023499 
     69 H           3.778126    2.749956   -2.904035 H         1 <1>         0.023499 
     70 H           4.516000    4.353169   -3.044503 H         1 <1>         0.023499 
     71 H           1.670398    3.917903    0.201356 H         1 <1>         0.027642 
     72 H           1.187193    3.662974   -1.495376 H         1 <1>         0.027642 
     73 H           2.340131    1.553130   -1.560494 H         1 <1>         0.035630 
     74 H          -0.451359    2.859540   -0.049874 H         1 <1>         0.065218 
     75 H          -1.609004   -0.639352   -0.690966 H         1 <1>         0.039170 
     76 H          -3.558627    0.453685    2.317541 H         1 <1>         0.023535 
     77 H          -4.558806   -0.986602    2.407923 H         1 <1>         0.023535 
     78 H          -2.984681   -1.032731    3.082778 H         1 <1>         0.023535 
     79 H           3.854038    1.933155    3.539387 H         1 <1>         0.220226 
     80 H          -5.906739   -3.979066   -0.420715 H         1 <1>         0.209800 
@<TRIPOS>BOND
     1    1    2 1    
     2    1    4 1    
     3    1   34 1    
     4    1   35 1    
     5    2    3 1    
     6    2   36 1    
     7    2   37 1    
     8    3   29 1    
     9    3   38 1    
    10    3   39 1    
    11    4    5 1    
    12    4    6 1    
    13    4    7 1    
    14    5   40 1    
    15    5   41 1    
    16    5   42 1    
    17    6   43 1    
    18    6   44 1    
    19    6   45 1    
    20    7    8 1    
    21    7   29 1    
    22    7   46 1    
    23    8    9 1    
    24    8   47 1    
    25    8   48 1    
    26    9   10 1    
    27    9   49 1    
    28    9   50 1    
    29   10   11 1    
    30   10   12 1    
    31   10   28 1    
    32   11   51 1    
    33   11   52 1    
    34   11   53 1    
    35   12   13 1    
    36   12   14 1    
    37   12   25 1    
    38   13   54 1    
    39   13   55 1    
    40   13   56 1    
    41   14   15 1    
    42   14   57 1    
    43   14   58 1    
    44   15   16 1    
    45   15   59 1    
    46   15   60 1    
    47   16   17 1    
    48   16   18 1    
    49   16   24 1    
    50   17   31 2    
    51   17   32 1    
    52   18   19 1    
    53   18   61 1    
    54   18   62 1    
    55   19   20 1    
    56   19   63 1    
    57   19   64 1    
    58   20   21 1    
    59   20   22 1    
    60   20   23 1    
    61   21   65 1    
    62   21   66 1    
    63   21   67 1    
    64   22   68 1    
    65   22   69 1    
    66   22   70 1    
    67   23   24 1    
    68   23   71 1    
    69   23   72 1    
    70   24   25 1    
    71   24   73 1    
    72   25   26 2    
    73   26   27 1    
    74   26   74 1    
    75   27   28 1    
    76   27   33 2    
    77   28   29 1    
    78   28   75 1    
    79   29   30 1    
    80   30   76 1    
    81   30   77 1    
    82   30   78 1    
    83   32   79 1    
    84   34   80 1    
@<TRIPOS>SUBSTRUCTURE
     1 ****        1 TEMP              0 ****  ****    0 ROOT 
@<TRIPOS>NORMAL
@<TRIPOS>FF_PBC
FORCE_FIELD_SETUP_FEATURE Force Field Setup information
v1.0  0 0.000000 0.000000 0.000000 0.000000 0.000000 0.000000 NONE 0 0 0 0 1 0 0 0 0 0 0 0 0
