@<TRIPOS>MOLECULE
MOL001894
   98    97     1     1     0
SMALL
GASTEIGER


@<TRIPOS>ATOM
      1 C           2.270295   -5.423493   -0.226743 C.3       1 <1>        -0.053057 
      2 C           3.561679   -4.677921    0.227063 C.3       1 <1>        -0.053057 
      3 C           0.967796   -4.706976    0.225484 C.3       1 <1>        -0.053057 
      4 C           3.592560   -3.191526   -0.225696 C.3       1 <1>        -0.053057 
      5 C          -0.314885   -5.527340   -0.083848 C.3       1 <1>        -0.053057 
      6 C           4.944509   -2.490644    0.083778 C.3       1 <1>        -0.053057 
      7 C          -1.577416   -4.692908    0.270527 C.3       1 <1>        -0.053057 
      8 C           4.852951   -0.980122   -0.270683 C.3       1 <1>        -0.053057 
      9 C          -2.902427   -5.445895   -0.028322 C.3       1 <1>        -0.053057 
     10 C           6.167395   -0.209312    0.028425 C.3       1 <1>        -0.053057 
     11 C          -4.119288   -4.519116    0.247664 C.3       1 <1>        -0.053057 
     12 C           5.973248    1.307915   -0.247835 C.3       1 <1>        -0.053057 
     13 C          -5.476459   -5.222244   -0.026758 C.3       1 <1>        -0.053057 
     14 C           7.260703    2.131818    0.026535 C.3       1 <1>        -0.053057 
     15 C          -6.651456   -4.224810    0.168406 C.3       1 <1>        -0.053057 
     16 C           6.984442    3.648287   -0.168488 C.3       1 <1>        -0.053057 
     17 C          -8.033659   -4.899270   -0.043606 C.3       1 <1>        -0.053057 
     18 C           8.259602    4.507907    0.043750 C.3       1 <1>        -0.053057 
     19 C          -9.178601   -3.855497    0.074680 C.3       1 <1>        -0.053057 
     20 C           7.927979    6.021336   -0.074393 C.3       1 <1>        -0.053057 
     21 C         -10.576410   -4.518207   -0.059836 C.3       1 <1>        -0.053057 
     22 C           9.200929    6.900530    0.059831 C.3       1 <1>        -0.053057 
     23 C         -11.708638   -3.457165    0.011922 C.3       1 <1>        -0.053057 
     24 C           8.848124    8.411685   -0.011956 C.3       1 <1>        -0.053057 
     25 C         -13.113179   -4.116877   -0.060654 C.3       1 <1>        -0.053065 
     26 C          10.121739    9.298130    0.060695 C.3       1 <1>        -0.053065 
     27 C         -14.240675   -3.049909   -0.007901 C.3       1 <1>        -0.053306 
     28 C           9.761364   10.808113    0.007812 C.3       1 <1>        -0.053306 
     29 C         -15.647845   -3.706706   -0.045873 C.3       1 <1>        -0.055911 
     30 C          11.033706   11.698279    0.045777 C.3       1 <1>        -0.055911 
     31 C         -16.767576   -2.634796   -0.000682 C.3       1 <1>        -0.065276 
     32 C          10.665202   13.204063    0.000546 C.3       1 <1>        -0.065276 
     33 H           2.266129   -5.513927   -1.325881 H         1 <1>         0.026528 
     34 H           2.286906   -6.441503    0.196282 H         1 <1>         0.026528 
     35 H           3.642102   -4.719170    1.326097 H         1 <1>         0.026528 
     36 H           4.435344   -5.201243   -0.195977 H         1 <1>         0.026528 
     37 H           3.391162   -3.132626   -1.307719 H         1 <1>         0.026528 
     38 H           2.807274   -2.636178    0.310251 H         1 <1>         0.026528 
     39 H           1.017362   -4.502726    1.307571 H         1 <1>         0.026528 
     40 H           0.879406   -3.749369   -0.310498 H         1 <1>         0.026528 
     41 H          -0.336352   -5.785225   -1.155563 H         1 <1>         0.026528 
     42 H          -0.309203   -6.463386    0.498307 H         1 <1>         0.026528 
     43 H           5.178221   -2.601044    1.155798 H         1 <1>         0.026528 
     44 H           5.752201   -2.963858   -0.497906 H         1 <1>         0.026528 
     45 H          -1.548805   -4.423574    1.339227 H         1 <1>         0.026528 
     46 H          -1.562984   -3.761281   -0.318394 H         1 <1>         0.026528 
     47 H           4.605731   -0.870611   -1.339388 H         1 <1>         0.026528 
     48 H           4.038832   -0.526988    0.317992 H         1 <1>         0.026528 
     49 H           6.447215   -0.354552    1.084958 H         1 <1>         0.026528 
     50 H           6.979852   -0.604640   -0.603166 H         1 <1>         0.026528 
     51 H          -2.916423   -5.761016   -1.084926 H         1 <1>         0.026528 
     52 H          -2.966109   -6.347062    0.603569 H         1 <1>         0.026528 
     53 H          -4.092213   -4.185079    1.298270 H         1 <1>         0.026528 
     54 H          -4.043237   -3.628522   -0.397620 H         1 <1>         0.026528 
     55 H           5.670634    1.451469   -1.298365 H         1 <1>         0.026528 
     56 H           5.163881    1.687469    0.397538 H         1 <1>         0.026528 
     57 H           7.599642    1.954676    1.060818 H         1 <1>         0.026528 
     58 H           8.058239    1.804649   -0.660677 H         1 <1>         0.026528 
     59 H          -5.492506   -5.604212   -1.060620 H         1 <1>         0.026528 
     60 H          -5.591834   -6.076427    0.660723 H         1 <1>         0.026528 
     61 H           6.600828    3.820775   -1.187376 H         1 <1>         0.026528 
     62 H           6.210813    3.966777    0.549508 H         1 <1>         0.026528 
     63 H          -6.609261   -3.806335    1.187530 H         1 <1>         0.026528 
     64 H          -6.540636   -3.395477   -0.549382 H         1 <1>         0.026528 
     65 H          -8.068114   -5.366802   -1.041823 H         1 <1>         0.026528 
     66 H          -8.171848   -5.689344    0.712572 H         1 <1>         0.026528 
     67 H           8.681793    4.303958    1.041618 H         1 <1>         0.026528 
     68 H           9.012901    4.232580   -0.712853 H         1 <1>         0.026528 
     69 H          -9.112608   -3.349834    1.051825 H         1 <1>         0.026528 
     70 H          -9.058647   -3.095374   -0.715023 H         1 <1>         0.026528 
     71 H           7.457064    6.217087   -1.051788 H         1 <1>         0.026528 
     72 H           7.210028    6.297438    0.714969 H         1 <1>         0.026528 
     73 H           9.695783    6.687764    1.021844 H         1 <1>         0.026528 
     74 H           9.901599    6.648325   -0.753406 H         1 <1>         0.026528 
     75 H         -10.639515   -5.053151   -1.021918 H         1 <1>         0.026528 
     76 H         -10.708293   -5.251153    0.753292 H         1 <1>         0.026528 
     77 H         -11.621174   -2.894600    0.955854 H         1 <1>         0.026528 
     78 H         -11.594691   -2.747867   -0.824462 H         1 <1>         0.026528 
     79 H           8.317118    8.617137   -0.955872 H         1 <1>         0.026528 
     80 H           8.176832    8.667554    0.824422 H         1 <1>         0.026528 
     81 H          10.664511    9.085284    0.996357 H         1 <1>         0.026528 
     82 H          10.783308    9.052360   -0.786324 H         1 <1>         0.026528 
     83 H         -13.200237   -4.693545   -0.996388 H         1 <1>         0.026528 
     84 H         -13.231096   -4.812782    0.786321 H         1 <1>         0.026528 
     85 H           9.201155   11.017285   -0.918478 H         1 <1>         0.026520 
     86 H           9.115618   11.058704    0.865559 H         1 <1>         0.026520 
     87 H         -14.141752   -2.460089    0.918375 H         1 <1>         0.026520 
     88 H         -14.134933   -2.365468   -0.865656 H         1 <1>         0.026520 
     89 H         -15.752975   -4.302131   -0.968065 H         1 <1>         0.026265 
     90 H         -15.762495   -4.384128    0.816720 H         1 <1>         0.026265 
     91 H          11.601809   11.491754    0.968288 H         1 <1>         0.026265 
     92 H          11.677758   11.459002   -0.816474 H         1 <1>         0.026265 
     93 H         -16.689545   -1.961427   -0.868848 H         1 <1>         0.022978 
     94 H         -16.687659   -2.034759    0.919348 H         1 <1>         0.022978 
     95 H         -17.757083   -3.118363   -0.019485 H         1 <1>         0.022978 
     96 H          10.042848   13.473170    0.868801 H         1 <1>         0.022978 
     97 H          10.105729   13.434760   -0.919391 H         1 <1>         0.022978 
     98 H          11.578691   13.819250    0.019487 H         1 <1>         0.022978 
@<TRIPOS>BOND
     1    1    2 1    
     2    1    3 1    
     3    1   33 1    
     4    1   34 1    
     5    2    4 1    
     6    2   35 1    
     7    2   36 1    
     8    3    5 1    
     9    3   39 1    
    10    3   40 1    
    11    4    6 1    
    12    4   37 1    
    13    4   38 1    
    14    5    7 1    
    15    5   41 1    
    16    5   42 1    
    17    6    8 1    
    18    6   43 1    
    19    6   44 1    
    20    7    9 1    
    21    7   45 1    
    22    7   46 1    
    23    8   10 1    
    24    8   47 1    
    25    8   48 1    
    26    9   11 1    
    27    9   51 1    
    28    9   52 1    
    29   10   12 1    
    30   10   49 1    
    31   10   50 1    
    32   11   13 1    
    33   11   53 1    
    34   11   54 1    
    35   12   14 1    
    36   12   55 1    
    37   12   56 1    
    38   13   15 1    
    39   13   59 1    
    40   13   60 1    
    41   14   16 1    
    42   14   57 1    
    43   14   58 1    
    44   15   17 1    
    45   15   63 1    
    46   15   64 1    
    47   16   18 1    
    48   16   61 1    
    49   16   62 1    
    50   17   19 1    
    51   17   65 1    
    52   17   66 1    
    53   18   20 1    
    54   18   67 1    
    55   18   68 1    
    56   19   21 1    
    57   19   69 1    
    58   19   70 1    
    59   20   22 1    
    60   20   71 1    
    61   20   72 1    
    62   21   23 1    
    63   21   75 1    
    64   21   76 1    
    65   22   24 1    
    66   22   73 1    
    67   22   74 1    
    68   23   25 1    
    69   23   77 1    
    70   23   78 1    
    71   24   26 1    
    72   24   79 1    
    73   24   80 1    
    74   25   27 1    
    75   25   83 1    
    76   25   84 1    
    77   26   28 1    
    78   26   81 1    
    79   26   82 1    
    80   27   29 1    
    81   27   87 1    
    82   27   88 1    
    83   28   30 1    
    84   28   85 1    
    85   28   86 1    
    86   29   31 1    
    87   29   89 1    
    88   29   90 1    
    89   30   32 1    
    90   30   91 1    
    91   30   92 1    
    92   31   93 1    
    93   31   94 1    
    94   31   95 1    
    95   32   96 1    
    96   32   97 1    
    97   32   98 1    
@<TRIPOS>SUBSTRUCTURE
     1 ****        1 TEMP              0 ****  ****    0 ROOT 
@<TRIPOS>NORMAL
@<TRIPOS>FF_PBC
FORCE_FIELD_SETUP_FEATURE Force Field Setup information
v1.0  0 0.000000 0.000000 0.000000 0.000000 0.000000 0.000000 NONE 0 0 0 0 1 0 0 0 0 0 0 0 0
