@<TRIPOS>MOLECULE
MOL004796
  125   125     1     1     0
SMALL
GASTEIGER


@<TRIPOS>ATOM
      1 O          -4.481194   -1.867692    0.533696 O.3       1 <1>        -0.340533 
      2 O          -2.312092   -1.497181   -0.205629 O.3       1 <1>        -0.346768 
      3 O          -4.270510   -0.972525   -2.221324 O.3       1 <1>        -0.384104 
      4 O          -4.713065   -4.634145   -1.642827 O.3       1 <1>        -0.386401 
      5 O          -6.810676   -1.597660   -1.491539 O.3       1 <1>        -0.386488 
      6 O          -6.890305   -4.554127    1.403545 O.3       1 <1>        -0.392366 
      7 O           1.765548   -0.534420    0.277271 O.3       1 <1>        -0.385850 
      8 O          -0.948826    2.633704    2.628653 O.2       1 <1>        -0.272971 
      9 O           0.462769    0.153432    4.100984 O.3       1 <1>        -0.382571 
     10 N          -1.052645    0.682511    1.559837 N.am      1 <1>        -0.305338 
     11 C          -3.948599   -2.323958   -1.823463 C.3       1 <1>         0.134112 
     12 C          -3.457938   -2.357076   -0.354850 C.3       1 <1>         0.187981 
     13 C          -5.158950   -3.291093   -1.925244 C.3       1 <1>         0.114061 
     14 C          -6.268336   -2.819546   -0.947039 C.3       1 <1>         0.111896 
     15 C          -5.705608   -2.630330    0.497447 C.3       1 <1>         0.113005 
     16 C          -5.585851   -3.951958    1.306198 C.3       1 <1>         0.073015 
     17 C          -1.671180   -1.643241    1.076077 C.3       1 <1>         0.071810 
     18 C          -0.500030   -0.632563    1.213215 C.3       1 <1>         0.076004 
     19 C           0.371270   -0.555709   -0.079330 C.3       1 <1>         0.093771 
     20 C          -0.447760    1.542428    2.417697 C.2       1 <1>         0.242019 
     21 C           0.831777    1.167083    3.138641 C.3       1 <1>         0.130868 
     22 C           0.038425    0.724647   -0.808819 C.2       1 <1>        -0.057979 
     23 C           1.542319    2.337164    3.878992 C.3       1 <1>        -0.018274 
     24 C          -0.876972    0.810848   -1.780516 C.2       1 <1>        -0.085181 
     25 C           2.317862    3.329599    2.960150 C.3       1 <1>        -0.050258 
     26 C          -1.236893    2.119596   -2.442744 C.3       1 <1>        -0.031246 
     27 C           1.417809    4.310107    2.155476 C.3       1 <1>        -0.052965 
     28 C          -2.592946    2.620996   -1.883455 C.3       1 <1>        -0.031325 
     29 C           2.270540    5.452765    1.534200 C.3       1 <1>        -0.053056 
     30 C          -2.877334    3.998733   -2.433331 C.2       1 <1>        -0.087643 
     31 C           1.403172    6.538918    0.837853 C.3       1 <1>        -0.053057 
     32 C          -3.703953    4.222838   -3.465121 C.2       1 <1>        -0.087922 
     33 C           2.286714    7.744182    0.408285 C.3       1 <1>        -0.053057 
     34 C          -3.949372    5.599624   -4.038678 C.3       1 <1>        -0.034761 
     35 C           1.473310    8.892674   -0.253315 C.3       1 <1>        -0.053057 
     36 C          -5.462345    5.922494   -4.179939 C.3       1 <1>        -0.049616 
     37 C           2.403099   10.099760   -0.564406 C.3       1 <1>        -0.053057 
     38 C          -5.672031    7.320668   -4.830103 C.3       1 <1>        -0.052779 
     39 C           1.651828   11.269722   -1.254021 C.3       1 <1>        -0.053057 
     40 C          -7.172617    7.628995   -5.095333 C.3       1 <1>        -0.053048 
     41 C           2.616645   12.455678   -1.537871 C.3       1 <1>        -0.053057 
     42 C          -7.352636    9.009679   -5.788222 C.3       1 <1>        -0.053057 
     43 C           1.893050   13.618318   -2.271153 C.3       1 <1>        -0.053065 
     44 C          -8.839736    9.298846   -6.135722 C.3       1 <1>        -0.053065 
     45 C           2.852269   14.808173   -2.552892 C.3       1 <1>        -0.053306 
     46 C          -8.988723   10.670286   -6.851009 C.3       1 <1>        -0.053306 
     47 C           2.105793   15.965850   -3.270550 C.3       1 <1>        -0.055911 
     48 C         -10.461733   10.963379   -7.245941 C.3       1 <1>        -0.055911 
     49 C           3.052559   17.153988   -3.582982 C.3       1 <1>        -0.065276 
     50 C         -10.588990   12.335667   -7.960139 C.3       1 <1>        -0.065276 
     51 H          -4.592769   -0.903859   -3.113333 H         1 <1>         0.210110 
     52 H          -5.404387   -5.285573   -1.722375 H         1 <1>         0.210005 
     53 H          -7.523466   -1.232446   -0.977658 H         1 <1>         0.210004 
     54 H          -6.899739   -5.354895    1.920810 H         1 <1>         0.209508 
     55 H           2.345541   -0.481344   -0.477039 H         1 <1>         0.210289 
     56 H           1.196998   -0.232317    4.568464 H         1 <1>         0.210426 
     57 H          -1.898460    0.966766    1.098709 H         1 <1>         0.149235 
     58 H          -3.130783   -2.695798   -2.465675 H         1 <1>         0.067095 
     59 H          -3.160891   -3.392425   -0.117850 H         1 <1>         0.093741 
     60 H          -5.549095   -3.254654   -2.957480 H         1 <1>         0.064758 
     61 H          -7.081227   -3.567625   -0.935482 H         1 <1>         0.064673 
     62 H          -6.433304   -2.024375    1.061421 H         1 <1>         0.064668 
     63 H          -5.198221   -3.703562    2.309750 H         1 <1>         0.058370 
     64 H          -4.887818   -4.662516    0.839187 H         1 <1>         0.058370 
     65 H          -2.377832   -1.478150    1.907351 H         1 <1>         0.058014 
     66 H          -1.271962   -2.668542    1.154968 H         1 <1>         0.058014 
     67 H           0.117015   -1.054932    2.021848 H         1 <1>         0.054975 
     68 H           0.196356   -1.440393   -0.714567 H         1 <1>         0.065688 
     69 H           1.550041    0.765486    2.407054 H         1 <1>         0.069005 
     70 H           0.570050    1.620110   -0.485874 H         1 <1>         0.059494 
     71 H           0.823471    2.869798    4.522397 H         1 <1>         0.029483 
     72 H           2.297706    1.884424    4.544437 H         1 <1>         0.029483 
     73 H          -1.413892   -0.078432   -2.112510 H         1 <1>         0.056985 
     74 H           2.967811    3.927468    3.621337 H         1 <1>         0.026620 
     75 H           2.974603    2.780169    2.263484 H         1 <1>         0.026620 
     76 H          -0.464317    2.881390   -2.254545 H         1 <1>         0.031028 
     77 H          -1.306274    1.973470   -3.532150 H         1 <1>         0.031028 
     78 H           0.889228    3.773742    1.350222 H         1 <1>         0.026530 
     79 H           0.672023    4.753198    2.835017 H         1 <1>         0.026530 
     80 H          -3.388253    1.904524   -2.141375 H         1 <1>         0.031027 
     81 H          -2.545240    2.688434   -0.785076 H         1 <1>         0.031027 
     82 H           2.846313    5.938572    2.338544 H         1 <1>         0.026528 
     83 H           2.984617    5.026721    0.809787 H         1 <1>         0.026528 
     84 H          -2.357649    4.832510   -1.959414 H         1 <1>         0.056905 
     85 H           0.897547    6.107361   -0.041488 H         1 <1>         0.026528 
     86 H           0.632336    6.894683    1.540887 H         1 <1>         0.026528 
     87 H          -4.212977    3.380965   -3.933966 H         1 <1>         0.056896 
     88 H           2.794620    8.147426    1.300747 H         1 <1>         0.026528 
     89 H           3.058657    7.392643   -0.295986 H         1 <1>         0.026528 
     90 H          -3.471374    6.379347   -3.424613 H         1 <1>         0.030732 
     91 H          -3.480243    5.618592   -5.035270 H         1 <1>         0.030732 
     92 H           1.009271    8.524823   -1.182736 H         1 <1>         0.026528 
     93 H           0.670059    9.218615    0.428485 H         1 <1>         0.026528 
     94 H          -5.940199    5.152837   -4.808693 H         1 <1>         0.026822 
     95 H          -5.938097    5.898515   -3.185296 H         1 <1>         0.026822 
     96 H           2.844083   10.466274    0.377733 H         1 <1>         0.026528 
     97 H           3.222993    9.762621   -1.218955 H         1 <1>         0.026528 
     98 H          -5.248480    8.095064   -4.168661 H         1 <1>         0.026538 
     99 H          -5.129059    7.353539   -5.789295 H         1 <1>         0.026538 
    100 H           1.217702   10.915424   -2.202391 H         1 <1>         0.026528 
    101 H           0.830431   11.612448   -0.604250 H         1 <1>         0.026528 
    102 H          -7.590900    6.843497   -5.745646 H         1 <1>         0.026529 
    103 H          -7.724569    7.619439   -4.141308 H         1 <1>         0.026529 
    104 H           3.028622   12.826632   -0.584904 H         1 <1>         0.026528 
    105 H           3.455017   12.105586   -2.162645 H         1 <1>         0.026528 
    106 H          -6.972767    9.803807   -5.124602 H         1 <1>         0.026528 
    107 H          -6.761210    9.025643   -6.718526 H         1 <1>         0.026528 
    108 H           1.486921   13.245010   -3.226617 H         1 <1>         0.026528 
    109 H           1.051319   13.967705   -1.650545 H         1 <1>         0.026528 
    110 H          -9.219789    8.500506   -6.794218 H         1 <1>         0.026528 
    111 H          -9.440188    9.299070   -5.211260 H         1 <1>         0.026528 
    112 H           3.268665   15.177763   -1.601277 H         1 <1>         0.026520 
    113 H           3.687855   14.462950   -3.183934 H         1 <1>         0.026520 
    114 H          -8.627364   11.469918   -6.183759 H         1 <1>         0.026520 
    115 H          -8.366805   10.673906   -7.761288 H         1 <1>         0.026520 
    116 H           1.674648   15.596500   -4.215812 H         1 <1>         0.026265 
    117 H           1.280554   16.321649   -2.630897 H         1 <1>         0.026265 
    118 H         -10.827183   10.172035   -7.921177 H         1 <1>         0.026265 
    119 H         -11.094960   10.966349   -6.343433 H         1 <1>         0.026265 
    120 H           2.491934   17.961843   -4.079636 H         1 <1>         0.022978 
    121 H           3.490828   17.551408   -2.654259 H         1 <1>         0.022978 
    122 H           3.867239   16.832610   -4.250549 H         1 <1>         0.022978 
    123 H         -11.638197   12.525103   -8.237360 H         1 <1>         0.022978 
    124 H         -10.250885   13.148199   -7.297798 H         1 <1>         0.022978 
    125 H          -9.977924   12.350501   -8.876415 H         1 <1>         0.022978 
@<TRIPOS>BOND
     1   12    1 1    
     2    1   15 1    
     3    2   12 1    
     4   17    2 1    
     5   11    3 1    
     6    3   51 1    
     7   13    4 1    
     8    4   52 1    
     9   14    5 1    
    10    5   53 1    
    11   16    6 1    
    12    6   54 1    
    13   19    7 1    
    14    7   55 1    
    15   20    8 2    
    16   21    9 1    
    17    9   56 1    
    18   10   18 1    
    19   20   10 1    
    20   10   57 1    
    21   12   11 1    
    22   11   13 1    
    23   11   58 1    
    24   12   59 1    
    25   13   14 1    
    26   13   60 1    
    27   15   14 1    
    28   14   61 1    
    29   15   16 1    
    30   15   62 1    
    31   16   63 1    
    32   16   64 1    
    33   18   17 1    
    34   17   65 1    
    35   17   66 1    
    36   18   19 1    
    37   18   67 1    
    38   19   22 1    
    39   19   68 1    
    40   20   21 1    
    41   21   23 1    
    42   21   69 1    
    43   22   24 2    
    44   22   70 1    
    45   23   25 1    
    46   23   71 1    
    47   23   72 1    
    48   24   26 1    
    49   24   73 1    
    50   25   27 1    
    51   25   74 1    
    52   25   75 1    
    53   26   28 1    
    54   26   76 1    
    55   26   77 1    
    56   27   29 1    
    57   27   78 1    
    58   27   79 1    
    59   28   30 1    
    60   28   80 1    
    61   28   81 1    
    62   29   31 1    
    63   29   82 1    
    64   29   83 1    
    65   30   32 2    
    66   30   84 1    
    67   31   33 1    
    68   31   85 1    
    69   31   86 1    
    70   32   34 1    
    71   32   87 1    
    72   33   35 1    
    73   33   88 1    
    74   33   89 1    
    75   34   36 1    
    76   34   90 1    
    77   34   91 1    
    78   35   37 1    
    79   35   92 1    
    80   35   93 1    
    81   36   38 1    
    82   36   94 1    
    83   36   95 1    
    84   37   39 1    
    85   37   96 1    
    86   37   97 1    
    87   38   40 1    
    88   38   98 1    
    89   38   99 1    
    90   39   41 1    
    91   39  100 1    
    92   39  101 1    
    93   40   42 1    
    94   40  102 1    
    95   40  103 1    
    96   41   43 1    
    97   41  104 1    
    98   41  105 1    
    99   42   44 1    
   100   42  106 1    
   101   42  107 1    
   102   43   45 1    
   103   43  108 1    
   104   43  109 1    
   105   44   46 1    
   106   44  110 1    
   107   44  111 1    
   108   45   47 1    
   109   45  112 1    
   110   45  113 1    
   111   46   48 1    
   112   46  114 1    
   113   46  115 1    
   114   47   49 1    
   115   47  116 1    
   116   47  117 1    
   117   48   50 1    
   118   48  118 1    
   119   48  119 1    
   120   49  120 1    
   121   49  121 1    
   122   49  122 1    
   123   50  123 1    
   124   50  124 1    
   125   50  125 1    
@<TRIPOS>SUBSTRUCTURE
     1 ****        3 TEMP              0 ****  ****    0 ROOT 
@<TRIPOS>NORMAL
@<TRIPOS>FF_PBC
FORCE_FIELD_SETUP_FEATURE Force Field Setup information
v1.0  0 0.000000 0.000000 0.000000 0.000000 0.000000 0.000000 NONE 0 0 0 0 1 0 0 0 0 0 0 0 0
