@<TRIPOS>MOLECULE
MOL004929
   48    47     1     1     0
SMALL
GASTEIGER


@<TRIPOS>ATOM
      1 C           0.541128    0.006229    0.000123 C.3       1 <1>        -0.053057 
      2 C          -0.794158   -0.787654   -0.000096 C.3       1 <1>        -0.053057 
      3 C           0.286844    1.538618   -0.000096 C.3       1 <1>        -0.053057 
      4 C          -0.542574   -2.320508    0.000122 C.3       1 <1>        -0.053057 
      5 C           1.620613    2.334799    0.000121 C.3       1 <1>        -0.053057 
      6 C          -1.878427   -3.113334   -0.000095 C.3       1 <1>        -0.053056 
      7 C           1.363797    3.866732   -0.000098 C.3       1 <1>        -0.053057 
      8 C          -1.628553   -4.646625    0.000120 C.3       1 <1>        -0.052986 
      9 C           2.696619    4.664575    0.000122 C.3       1 <1>        -0.053065 
     10 C          -2.965931   -5.436931   -0.000096 C.3       1 <1>        -0.050987 
     11 C           2.438060    6.196199   -0.000099 C.3       1 <1>        -0.053306 
     12 C          -2.718418   -6.970551    0.000113 C.3       1 <1>        -0.029718 
     13 C           3.769519    6.995655    0.000126 C.3       1 <1>        -0.055911 
     14 C          -4.049633   -7.763939   -0.000100 C.3       1 <1>         0.044206 
     15 C           3.507694    8.524370   -0.000097 C.3       1 <1>        -0.065276 
     16 O          -3.740801   -9.169263    0.000109 O.3       1 <1>        -0.395007 
     17 H           1.126893   -0.265951    0.893621 H         1 <1>         0.026528 
     18 H           1.127300   -0.266140   -0.893027 H         1 <1>         0.026528 
     19 H          -1.379672   -0.514755   -0.893476 H         1 <1>         0.026528 
     20 H          -1.380089   -0.514560    0.892979 H         1 <1>         0.026528 
     21 H          -0.299106    1.810255   -0.893578 H         1 <1>         0.026528 
     22 H          -0.299522    1.810449    0.893079 H         1 <1>         0.026528 
     23 H           0.042940   -2.593244    0.893559 H         1 <1>         0.026528 
     24 H           0.043348   -2.593432   -0.892965 H         1 <1>         0.026528 
     25 H           2.206833    2.063731    0.893651 H         1 <1>         0.026528 
     26 H           2.207241    2.063541   -0.893057 H         1 <1>         0.026528 
     27 H          -2.463584   -2.839685   -0.893481 H         1 <1>         0.026528 
     28 H          -2.463997   -2.839494    0.892983 H         1 <1>         0.026528 
     29 H           0.777386    4.137630   -0.893526 H         1 <1>         0.026528 
     30 H           0.776967    4.137823    0.893020 H         1 <1>         0.026528 
     31 H          -1.043609   -4.920583    0.893609 H         1 <1>         0.026529 
     32 H          -1.043205   -4.920769   -0.893028 H         1 <1>         0.026529 
     33 H           3.283174    4.394221    0.893575 H         1 <1>         0.026528 
     34 H           3.283586    4.394030   -0.892983 H         1 <1>         0.026528 
     35 H          -3.550542   -5.162948   -0.893749 H         1 <1>         0.026599 
     36 H          -3.550947   -5.162763    0.893251 H         1 <1>         0.026599 
     37 H           1.851730    6.467158   -0.893549 H         1 <1>         0.026520 
     38 H           1.851310    6.467350    0.893034 H         1 <1>         0.026520 
     39 H          -2.137922   -7.254786    0.893162 H         1 <1>         0.028724 
     40 H          -2.137526   -7.254966   -0.892608 H         1 <1>         0.028724 
     41 H           4.359175    6.731115    0.893764 H         1 <1>         0.026265 
     42 H           4.359591    6.730924   -0.893169 H         1 <1>         0.026265 
     43 H          -4.636267   -7.502542   -0.897653 H         1 <1>         0.055696 
     44 H          -4.636668   -7.502362    0.897147 H         1 <1>         0.055696 
     45 H           4.462708    9.073419    0.000069 H         1 <1>         0.022978 
     46 H           2.936511    8.815943   -0.895257 H         1 <1>         0.022978 
     47 H           2.936091    8.816137    0.894734 H         1 <1>         0.022978 
     48 H          -4.516006   -9.723220   -0.000010 H         1 <1>         0.209395 
@<TRIPOS>BOND
     1    1    2 1    
     2    1    3 1    
     3    1   17 1    
     4    1   18 1    
     5    2    4 1    
     6    2   19 1    
     7    2   20 1    
     8    3    5 1    
     9    3   21 1    
    10    3   22 1    
    11    4    6 1    
    12    4   23 1    
    13    4   24 1    
    14    5    7 1    
    15    5   25 1    
    16    5   26 1    
    17    6    8 1    
    18    6   27 1    
    19    6   28 1    
    20    7    9 1    
    21    7   29 1    
    22    7   30 1    
    23    8   10 1    
    24    8   31 1    
    25    8   32 1    
    26    9   11 1    
    27    9   33 1    
    28    9   34 1    
    29   10   12 1    
    30   10   35 1    
    31   10   36 1    
    32   11   13 1    
    33   11   37 1    
    34   11   38 1    
    35   12   14 1    
    36   12   39 1    
    37   12   40 1    
    38   13   15 1    
    39   13   41 1    
    40   13   42 1    
    41   14   16 1    
    42   14   43 1    
    43   14   44 1    
    44   15   45 1    
    45   15   46 1    
    46   15   47 1    
    47   16   48 1    
@<TRIPOS>SUBSTRUCTURE
     1 ****        1 TEMP              0 ****  ****    0 ROOT 
@<TRIPOS>NORMAL
@<TRIPOS>FF_PBC
FORCE_FIELD_SETUP_FEATURE Force Field Setup information
v1.0  0 0.000000 0.000000 0.000000 0.000000 0.000000 0.000000 NONE 0 0 0 0 1 0 0 0 0 0 0 0 0
