@<TRIPOS>MOLECULE
MOL012992
   49    51     1     1     0
SMALL
GASTEIGER


@<TRIPOS>ATOM
      1 C          -1.874189    2.480056    1.042756 C.ar      1 <1>         0.076680 
      2 C          -1.695280    1.467836    1.899545 C.ar      1 <1>        -0.031108 
      3 C          -2.315168    0.153362    1.626640 C.ar      1 <1>        -0.052116 
      4 C          -3.085836   -0.022783    0.533663 C.ar      1 <1>        -0.023697 
      5 C          -3.365767    1.121672   -0.367472 C.ar      1 <1>        -0.052116 
      6 C          -2.771945    2.317121   -0.128249 C.ar      1 <1>        -0.031108 
      7 O          -1.202077    3.680606    1.253223 O.3       1 <1>        -0.338833 
      8 C          -3.614474   -1.414134    0.269836 C.2       1 <1>        -0.040693 
      9 C          -2.763404   -2.449150    0.197118 C.2       1 <1>        -0.003130 
     10 C          -0.009185    3.758187    0.451516 C.3       1 <1>         0.097118 
     11 C           0.816235    5.014192    0.801797 C.3       1 <1>        -0.004427 
     12 C           2.203431    4.684252    0.204183 C.3       1 <1>         0.037935 
     13 N           2.251480    3.254303    0.383795 N.2       1 <1>        -0.304305 
     14 C           1.001219    2.605054    0.707673 C.3       1 <1>         0.147816 
     15 C           0.767007    1.380153   -0.154935 C.2       1 <1>         0.240281 
     16 N          -1.412276   -2.318525    0.117631 N.am      1 <1>        -0.290416 
     17 C          -0.777844   -1.320234   -0.556046 C.2       1 <1>         0.237115 
     18 C           0.717083   -1.049859   -0.496920 C.3       1 <1>         0.099955 
     19 N           0.929744    0.130479    0.354624 N.am      1 <1>        -0.302165 
     20 O           0.435176    1.559091   -1.316124 O.2       1 <1>        -0.273380 
     21 O          -1.403501   -0.584446   -1.301697 O.2       1 <1>        -0.273447 
     22 C           1.692073   -2.200392   -0.096447 C.3       1 <1>        -0.023619 
     23 C           1.980568   -3.256113   -1.212717 C.3       1 <1>        -0.044591 
     24 C           3.093537   -4.235835   -0.741720 C.3       1 <1>        -0.062595 
     25 C           0.729206   -4.069558   -1.642897 C.3       1 <1>        -0.062595 
     26 H          -1.081664    1.601670    2.783306 H         1 <1>         0.064346 
     27 H          -2.127628   -0.671236    2.307042 H         1 <1>         0.062423 
     28 H          -4.031406    0.992875   -1.214153 H         1 <1>         0.062423 
     29 H          -2.950377    3.161428   -0.785776 H         1 <1>         0.064346 
     30 H          -4.693289   -1.555195    0.204729 H         1 <1>         0.063587 
     31 H          -3.194250   -3.453318    0.226766 H         1 <1>         0.078217 
     32 H          -0.269912    3.816846   -0.619183 H         1 <1>         0.062777 
     33 H           0.383016    5.948416    0.408204 H         1 <1>         0.030872 
     34 H           0.894529    5.087769    1.899455 H         1 <1>         0.030872 
     35 H           3.024418    5.199885    0.726989 H         1 <1>         0.050479 
     36 H           2.248458    4.904745   -0.874517 H         1 <1>         0.050479 
     37 H           1.039678    2.358425    1.778425 H         1 <1>         0.066269 
     38 H          -0.871267   -3.061008    0.501694 H         1 <1>         0.154295 
     39 H           1.019465   -0.794436   -1.526918 H         1 <1>         0.059460 
     40 H           1.166761   -0.013789    1.317230 H         1 <1>         0.149515 
     41 H           1.375223   -2.683301    0.839007 H         1 <1>         0.029028 
     42 H           2.657831   -1.710849    0.114881 H         1 <1>         0.029028 
     43 H           2.360610   -2.730731   -2.107413 H         1 <1>         0.029618 
     44 H           3.330036   -4.964141   -1.533382 H         1 <1>         0.023234 
     45 H           4.017081   -3.687934   -0.496807 H         1 <1>         0.023234 
     46 H           2.767260   -4.787663    0.153289 H         1 <1>         0.023234 
     47 H           0.993769   -4.767742   -2.452486 H         1 <1>         0.023234 
     48 H          -0.064792   -3.409559   -2.021104 H         1 <1>         0.023234 
     49 H           0.342534   -4.660393   -0.799658 H         1 <1>         0.023234 
@<TRIPOS>BOND
     1    1    2 2    
     2    1    6 1    
     3    1    7 1    
     4    2    3 1    
     5    2   26 1    
     6    3    4 2    
     7    3   27 1    
     8    4    5 1    
     9    4    8 1    
    10    5    6 2    
    11    5   28 1    
    12    6   29 1    
    13    7   10 1    
    14    8    9 2    
    15    8   30 1    
    16    9   16 1    
    17    9   31 1    
    18   10   11 1    
    19   10   14 1    
    20   10   32 1    
    21   11   12 1    
    22   11   33 1    
    23   11   34 1    
    24   12   13 1    
    25   12   35 1    
    26   12   36 1    
    27   13   14 1    
    28   14   15 1    
    29   14   37 1    
    30   15   19 1    
    31   15   20 2    
    32   16   17 1    
    33   16   38 1    
    34   17   18 1    
    35   17   21 2    
    36   18   19 1    
    37   18   22 1    
    38   18   39 1    
    39   19   40 1    
    40   22   23 1    
    41   22   41 1    
    42   22   42 1    
    43   23   24 1    
    44   23   25 1    
    45   23   43 1    
    46   24   44 1    
    47   24   45 1    
    48   24   46 1    
    49   25   47 1    
    50   25   48 1    
    51   25   49 1    
@<TRIPOS>SUBSTRUCTURE
     1 ****        1 TEMP              0 ****  ****    0 ROOT 
@<TRIPOS>NORMAL
@<TRIPOS>FF_PBC
FORCE_FIELD_SETUP_FEATURE Force Field Setup information
v1.0  0 0.000000 0.000000 0.000000 0.000000 0.000000 0.000000 NONE 0 0 0 0 1 0 0 0 0 0 0 0 0
