@<TRIPOS>MOLECULE
MOL005345
  103   107     1     1     0
SMALL
GASTEIGER


@<TRIPOS>ATOM
      1 C          -2.821348   -1.177296   -1.910040 C.3       1 <1>        -0.025470 
      2 C          -3.641240   -2.113900   -0.991726 C.3       1 <1>         0.067174 
      3 C          -2.666959   -3.164027   -0.327958 C.3       1 <1>        -0.005230 
      4 C          -1.801255   -0.307387   -1.119341 C.3       1 <1>        -0.044719 
      5 C          -1.021425   -1.050982    0.034570 C.3       1 <1>        -0.025166 
      6 C          -1.185376   -2.598818   -0.215368 C.3       1 <1>        -0.027835 
      7 C          -0.249513   -3.431339    0.716395 C.3       1 <1>        -0.048618 
      8 C           1.244071   -3.020599    0.561468 C.3       1 <1>        -0.046558 
      9 C           0.520365   -0.664846   -0.043553 C.3       1 <1>        -0.027109 
     10 C           1.534957   -1.509329    0.834469 C.3       1 <1>        -0.022899 
     11 C           2.328337    1.238005   -0.282288 C.3       1 <1>         0.059398 
     12 C           0.834535    0.878273   -0.005555 C.3       1 <1>        -0.022703 
     13 C           3.199453    0.379891    0.664001 C.3       1 <1>        -0.002573 
     14 C           3.028393   -1.148368    0.398061 C.3       1 <1>        -0.020677 
     15 C           4.207742   -1.760810    1.246277 C.3       1 <1>        -0.046215 
     16 C           5.053989   -0.561120    1.772014 C.3       1 <1>        -0.045648 
     17 C           4.721870    0.624578    0.819582 C.3       1 <1>        -0.014452 
     18 C           5.107385    2.022221    1.291022 C.2       1 <1>        -0.072794 
     19 C           5.475969    3.003325    0.447337 C.2       1 <1>        -0.081014 
     20 C           5.072525    2.285179    2.784746 C.3       1 <1>        -0.043505 
     21 C           5.540884    2.911580   -1.060858 C.3       1 <1>        -0.016057 
     22 C           5.215922    4.260242   -1.663457 C.2       1 <1>        -0.081549 
     23 C           6.028116    4.988771   -2.446994 C.2       1 <1>        -0.079326 
     24 C           5.596732    6.330540   -2.999181 C.3       1 <1>        -0.044040 
     25 C           7.417278    4.532674   -2.834038 C.3       1 <1>        -0.044040 
     26 C          -2.665328   -4.434078   -1.251570 C.3       1 <1>        -0.057181 
     27 C          -3.220034   -3.662634    1.046520 C.3       1 <1>        -0.057181 
     28 C          -1.643269   -0.609484    1.402618 C.3       1 <1>        -0.059018 
     29 C           1.341173   -1.236849    2.378313 C.3       1 <1>        -0.058782 
     30 H           2.827804    0.672396    1.654672 H         1 <1>         0.033685 
     31 C           3.392142   -1.524339   -1.096924 C.3       1 <1>        -0.058702 
     32 H           0.741170   -0.939958   -1.077505 H         1 <1>         0.031235 
     33 H          -0.745199   -2.756080   -1.212838 H         1 <1>         0.031210 
     34 O          -4.376961   -1.284944   -0.059175 O.3       1 <1>        -0.344892 
     35 O           2.555503    2.628074    0.016445 O.3       1 <1>        -0.391466 
     36 C          -5.751937   -1.663888    0.187528 C.3       1 <1>         0.188229 
     37 O          -6.643638   -1.209972   -0.850500 O.3       1 <1>        -0.340523 
     38 C          -6.906018    0.211267   -0.846007 C.3       1 <1>         0.113005 
     39 C          -7.399641    0.725762    0.534569 C.3       1 <1>         0.111896 
     40 C          -6.403216    0.321322    1.653507 C.3       1 <1>         0.114061 
     41 C          -6.191339   -1.212678    1.606552 C.3       1 <1>         0.134121 
     42 C          -5.753505    1.057016   -1.447179 C.3       1 <1>         0.073015 
     43 O          -6.149407    2.441766   -1.504550 O.3       1 <1>        -0.392366 
     44 O          -8.711600    0.175110    0.779202 O.3       1 <1>        -0.386488 
     45 O          -7.382975   -1.935947    1.988099 O.3       1 <1>        -0.384104 
     46 O          -5.132850    0.993980    1.547669 O.3       1 <1>        -0.386401 
     47 H          -3.497741   -0.513349   -2.468587 H         1 <1>         0.029047 
     48 H          -2.304761   -1.785046   -2.671376 H         1 <1>         0.029047 
     49 H          -4.365606   -2.605551   -1.666368 H         1 <1>         0.060224 
     50 H          -1.137826    0.065225   -1.915476 H         1 <1>         0.027149 
     51 H          -2.315477    0.579059   -0.714034 H         1 <1>         0.027149 
     52 H          -0.298373   -4.499758    0.455382 H         1 <1>         0.026846 
     53 H          -0.575129   -3.366057    1.759352 H         1 <1>         0.026846 
     54 H           1.490970   -3.285396   -0.474734 H         1 <1>         0.027087 
     55 H           1.870842   -3.643661    1.219593 H         1 <1>         0.027087 
     56 H           2.597317    1.056247   -1.334173 H         1 <1>         0.059628 
     57 H           0.239829    1.440522   -0.738967 H         1 <1>         0.029314 
     58 H           0.593213    1.316007    0.970607 H         1 <1>         0.029314 
     59 H           4.896288   -2.369872    0.637603 H         1 <1>         0.027097 
     60 H           3.893635   -2.439220    2.052662 H         1 <1>         0.027097 
     61 H           4.714444   -0.355897    2.799055 H         1 <1>         0.027124 
     62 H           6.136670   -0.768764    1.814147 H         1 <1>         0.027124 
     63 H           5.270493    0.427897   -0.108598 H         1 <1>         0.034917 
     64 H           5.769721    3.970684    0.857071 H         1 <1>         0.057470 
     65 H           4.101040    1.997295    3.211157 H         1 <1>         0.027445 
     66 H           5.870154    1.711062    3.278691 H         1 <1>         0.027445 
     67 H           5.229518    3.345139    3.034969 H         1 <1>         0.027445 
     68 H           6.541174    2.542553   -1.325124 H         1 <1>         0.034978 
     69 H           4.801909    2.212872   -1.475318 H         1 <1>         0.034978 
     70 H           4.225186    4.646171   -1.419330 H         1 <1>         0.057453 
     71 H           4.580022    6.617190   -2.690511 H         1 <1>         0.027427 
     72 H           5.622702    6.297550   -4.098894 H         1 <1>         0.027427 
     73 H           6.291454    7.109527   -2.650490 H         1 <1>         0.027427 
     74 H           7.359365    3.586460   -3.392882 H         1 <1>         0.027427 
     75 H           8.030491    4.389018   -1.931625 H         1 <1>         0.027427 
     76 H           7.926644    5.270291   -3.472794 H         1 <1>         0.027427 
     77 H          -2.019557   -5.234544   -0.866802 H         1 <1>         0.023587 
     78 H          -3.677276   -4.860778   -1.335105 H         1 <1>         0.023587 
     79 H          -2.327275   -4.195859   -2.271035 H         1 <1>         0.023587 
     80 H          -3.272580   -2.861217    1.791674 H         1 <1>         0.023587 
     81 H          -4.222727   -4.093469    0.938800 H         1 <1>         0.023587 
     82 H          -2.604896   -4.471723    1.463910 H         1 <1>         0.023587 
     83 H          -1.338858   -1.234505    2.245394 H         1 <1>         0.023525 
     84 H          -2.733954   -0.630780    1.392912 H         1 <1>         0.023525 
     85 H          -1.389410    0.429840    1.642259 H         1 <1>         0.023525 
     86 H           0.758595   -2.005606    2.895090 H         1 <1>         0.023533 
     87 H           2.276341   -1.203990    2.946348 H         1 <1>         0.023533 
     88 H           0.850817   -0.278756    2.582052 H         1 <1>         0.023533 
     89 H           2.717679   -1.175488   -1.883421 H         1 <1>         0.023534 
     90 H           4.375926   -1.139883   -1.391018 H         1 <1>         0.023534 
     91 H           3.474071   -2.613280   -1.220901 H         1 <1>         0.023534 
     92 H           2.043473    3.219576   -0.525537 H         1 <1>         0.209789 
     93 H          -5.874688   -2.755832    0.188321 H         1 <1>         0.093750 
     94 H          -7.752114    0.347102   -1.540214 H         1 <1>         0.064668 
     95 H          -7.494358    1.825009    0.504450 H         1 <1>         0.064673 
     96 H          -6.834051    0.582035    2.635797 H         1 <1>         0.064758 
     97 H          -5.381046   -1.475124    2.308274 H         1 <1>         0.067095 
     98 H          -4.833092    0.956630   -0.857520 H         1 <1>         0.058370 
     99 H          -5.561330    0.686970   -2.467730 H         1 <1>         0.058370 
    100 H          -5.485015    3.005632   -1.890785 H         1 <1>         0.209508 
    101 H          -9.105904    0.459618    1.597391 H         1 <1>         0.210004 
    102 H          -7.688320   -1.739279    2.867740 H         1 <1>         0.210110 
    103 H          -5.198384    1.943247    1.592125 H         1 <1>         0.210005 
@<TRIPOS>BOND
     1    1    2 1    
     2    1    4 1    
     3    1   47 1    
     4    1   48 1    
     5    2    3 1    
     6    2   34 1    
     7    2   49 1    
     8    3    6 1    
     9    3   26 1    
    10    3   27 1    
    11    4    5 1    
    12    4   50 1    
    13    4   51 1    
    14    5    6 1    
    15    5    9 1    
    16    5   28 1    
    17    6    7 1    
    18    6   33 1    
    19    7    8 1    
    20    7   52 1    
    21    7   53 1    
    22    8   10 1    
    23    8   54 1    
    24    8   55 1    
    25    9   10 1    
    26    9   12 1    
    27    9   32 1    
    28   10   14 1    
    29   10   29 1    
    30   12   11 1    
    31   11   13 1    
    32   11   35 1    
    33   11   56 1    
    34   12   57 1    
    35   12   58 1    
    36   13   14 1    
    37   13   17 1    
    38   13   30 1    
    39   14   15 1    
    40   14   31 1    
    41   15   16 1    
    42   15   59 1    
    43   15   60 1    
    44   16   17 1    
    45   16   61 1    
    46   16   62 1    
    47   17   18 1    
    48   17   63 1    
    49   18   19 2    
    50   18   20 1    
    51   19   21 1    
    52   19   64 1    
    53   20   65 1    
    54   20   66 1    
    55   20   67 1    
    56   21   22 1    
    57   21   68 1    
    58   21   69 1    
    59   22   23 2    
    60   22   70 1    
    61   23   24 1    
    62   23   25 1    
    63   24   71 1    
    64   24   72 1    
    65   24   73 1    
    66   25   74 1    
    67   25   75 1    
    68   25   76 1    
    69   26   77 1    
    70   26   78 1    
    71   26   79 1    
    72   27   80 1    
    73   27   81 1    
    74   27   82 1    
    75   28   83 1    
    76   28   84 1    
    77   28   85 1    
    78   29   86 1    
    79   29   87 1    
    80   29   88 1    
    81   31   89 1    
    82   31   90 1    
    83   31   91 1    
    84   34   36 1    
    85   35   92 1    
    86   36   37 1    
    87   36   41 1    
    88   36   93 1    
    89   37   38 1    
    90   38   39 1    
    91   38   42 1    
    92   38   94 1    
    93   39   40 1    
    94   39   44 1    
    95   39   95 1    
    96   40   41 1    
    97   40   46 1    
    98   40   96 1    
    99   41   45 1    
   100   41   97 1    
   101   42   43 1    
   102   42   98 1    
   103   42   99 1    
   104   43  100 1    
   105   44  101 1    
   106   45  102 1    
   107   46  103 1    
@<TRIPOS>SUBSTRUCTURE
     1 ****        1 TEMP              0 ****  ****    0 ROOT 
@<TRIPOS>NORMAL
@<TRIPOS>FF_PBC
FORCE_FIELD_SETUP_FEATURE Force Field Setup information
v1.0  0 0.000000 0.000000 0.000000 0.000000 0.000000 0.000000 NONE 0 0 0 0 1 0 0 0 0 0 0 0 0
