@<TRIPOS>MOLECULE
MOL002928
   33    35     1     1     0
SMALL
GASTEIGER


@<TRIPOS>ATOM
      1 C          -0.176434    1.636109    0.030166 C.ar      1 <1>         0.084491 
      2 C          -0.635644    0.235131   -0.003520 C.ar      1 <1>         0.098973 
      3 C          -1.100935    2.696364    0.039115 C.ar      1 <1>         0.118463 
      4 C           1.318582    1.818399    0.053214 C.2       1 <1>         0.193594 
      5 O           0.287398   -0.812851   -0.012268 O.3       1 <1>        -0.307709 
      6 C          -2.000673   -0.047547   -0.026848 C.ar      1 <1>         0.002014 
      7 C          -2.558879    2.411671    0.014530 C.ar      1 <1>         0.136015 
      8 O          -0.647409    4.015873    0.071107 O.3       1 <1>        -0.356589 
      9 C           2.146678    0.605057    0.039920 C.2       1 <1>         0.016920 
     10 O           1.839653    2.921309    0.081858 O.2       1 <1>        -0.287016 
     11 C           1.620312   -0.630489    0.008619 C.2       1 <1>         0.093863 
     12 C          -3.008838    1.044532   -0.018348 C.ar      1 <1>         0.107531 
     13 O          -3.434482    3.510696    0.024874 O.3       1 <1>        -0.342946 
     14 C           2.457873   -1.898508   -0.005638 C.ar      1 <1>         0.005594 
     15 O          -4.372050    0.733805   -0.042203 O.3       1 <1>        -0.357150 
     16 C          -4.864002    3.375684    0.003609 C.3       1 <1>         0.043242 
     17 C           1.738269   -3.199707   -0.040286 C.ar      1 <1>        -0.052112 
     18 C           3.884643   -1.930877    0.011802 C.ar      1 <1>        -0.052112 
     19 C           2.434520   -4.418467   -0.055367 C.ar      1 <1>        -0.061122 
     20 C           4.614470   -3.221646   -0.004250 C.ar      1 <1>        -0.061122 
     21 C           3.914398   -4.430498   -0.036835 C.ar      1 <1>        -0.061721 
     22 H          -2.316270   -1.084587   -0.051466 H         1 <1>         0.067032 
     23 H          -1.372520    4.633265    0.073860 H         1 <1>         0.217446 
     24 H           3.213281    0.805702    0.057738 H         1 <1>         0.068219 
     25 H          -4.561152   -0.197548   -0.062686 H         1 <1>         0.217424 
     26 H          -5.293212    4.388228    0.018049 H         1 <1>         0.052872 
     27 H          -5.201829    2.873005   -0.915406 H         1 <1>         0.052872 
     28 H          -5.225351    2.837248    0.892944 H         1 <1>         0.052872 
     29 H           0.653706   -3.221967   -0.054473 H         1 <1>         0.062424 
     30 H           4.479421   -1.028501    0.037013 H         1 <1>         0.062424 
     31 H           1.889414   -5.356896   -0.080692 H         1 <1>         0.061777 
     32 H           5.700037   -3.226158    0.009432 H         1 <1>         0.061777 
     33 H           4.449794   -5.374583   -0.048557 H         1 <1>         0.061759 
@<TRIPOS>BOND
     1    1    2 1    
     2    1    3 2    
     3    1    4 1    
     4    2    5 1    
     5    2    6 2    
     6    3    7 1    
     7    3    8 1    
     8    4    9 1    
     9    4   10 2    
    10    5   11 1    
    11    6   12 1    
    12    6   22 1    
    13    7   12 2    
    14    7   13 1    
    15    8   23 1    
    16    9   11 2    
    17    9   24 1    
    18   11   14 1    
    19   12   15 1    
    20   13   16 1    
    21   14   17 1    
    22   14   18 2    
    23   15   25 1    
    24   16   26 1    
    25   16   27 1    
    26   16   28 1    
    27   17   19 2    
    28   17   29 1    
    29   18   20 1    
    30   18   30 1    
    31   19   21 1    
    32   19   31 1    
    33   20   21 2    
    34   20   32 1    
    35   21   33 1    
@<TRIPOS>SUBSTRUCTURE
     1 ****        1 TEMP              0 ****  ****    0 ROOT 
@<TRIPOS>NORMAL
@<TRIPOS>FF_PBC
FORCE_FIELD_SETUP_FEATURE Force Field Setup information
v1.0  0 0.000000 0.000000 0.000000 0.000000 0.000000 0.000000 NONE 0 0 0 0 1 0 0 0 0 0 0 0 0
