@<TRIPOS>MOLECULE
MOL000864
   47    46     1     1     0
SMALL
GASTEIGER


@<TRIPOS>ATOM
      1 C          -8.977178   -0.401737   -0.000094 C.3       1 <1>        -0.065276 
      2 C          -7.700278    0.478712    0.000137 C.3       1 <1>        -0.055911 
      3 C          -6.414702   -0.392762   -0.000098 C.3       1 <1>        -0.053306 
      4 C          -5.133704    0.485790    0.000133 C.3       1 <1>        -0.053065 
      5 C          -3.848988   -0.387526   -0.000099 C.3       1 <1>        -0.053057 
      6 C          -2.566912    0.489693    0.000134 C.3       1 <1>        -0.053057 
      7 C          -1.282712   -0.384315   -0.000098 C.3       1 <1>        -0.053057 
      8 C           0.000000    0.491892    0.000134 C.3       1 <1>        -0.053057 
      9 C           1.282712   -0.384315   -0.000098 C.3       1 <1>        -0.053057 
     10 C           2.566912    0.489693    0.000134 C.3       1 <1>        -0.053057 
     11 C           3.848988   -0.387526   -0.000099 C.3       1 <1>        -0.053057 
     12 C           5.133704    0.485790    0.000133 C.3       1 <1>        -0.053065 
     13 C           6.414702   -0.392762   -0.000098 C.3       1 <1>        -0.053306 
     14 C           7.700278    0.478712    0.000137 C.3       1 <1>        -0.055911 
     15 C           8.977178   -0.401737   -0.000094 C.3       1 <1>        -0.065276 
     16 H          -9.876735    0.234036    0.000077 H         1 <1>         0.022978 
     17 H          -9.001692   -1.042593   -0.895266 H         1 <1>         0.022978 
     18 H          -9.001687   -1.043069    0.894735 H         1 <1>         0.022978 
     19 H          -7.708501    1.125002    0.893810 H         1 <1>         0.026265 
     20 H          -7.708505    1.125480   -0.893193 H         1 <1>         0.026265 
     21 H          -6.414001   -1.038585   -0.893594 H         1 <1>         0.026520 
     22 H          -6.413999   -1.039063    0.893056 H         1 <1>         0.026520 
     23 H          -5.135201    1.131625    0.893623 H         1 <1>         0.026528 
     24 H          -5.135203    1.132104   -0.893008 H         1 <1>         0.026528 
     25 H          -3.848023   -1.033452   -0.893582 H         1 <1>         0.026528 
     26 H          -3.848021   -1.033933    0.893038 H         1 <1>         0.026528 
     27 H          -2.567726    1.135507    0.893677 H         1 <1>         0.026528 
     28 H          -2.567726    1.135987   -0.893065 H         1 <1>         0.026528 
     29 H          -1.282082   -1.030183   -0.893577 H         1 <1>         0.026528 
     30 H          -1.282082   -1.030663    0.893034 H         1 <1>         0.026528 
     31 H           0.000000    1.137811    0.893618 H         1 <1>         0.026528 
     32 H           0.000000    1.138292   -0.893004 H         1 <1>         0.026528 
     33 H           1.282082   -1.030183   -0.893577 H         1 <1>         0.026528 
     34 H           1.282082   -1.030663    0.893034 H         1 <1>         0.026528 
     35 H           2.567726    1.135507    0.893677 H         1 <1>         0.026528 
     36 H           2.567726    1.135987   -0.893065 H         1 <1>         0.026528 
     37 H           3.848023   -1.033452   -0.893582 H         1 <1>         0.026528 
     38 H           3.848021   -1.033933    0.893038 H         1 <1>         0.026528 
     39 H           5.135201    1.131625    0.893623 H         1 <1>         0.026528 
     40 H           5.135203    1.132104   -0.893008 H         1 <1>         0.026528 
     41 H           6.414001   -1.038585   -0.893594 H         1 <1>         0.026520 
     42 H           6.413999   -1.039063    0.893056 H         1 <1>         0.026520 
     43 H           7.708501    1.125002    0.893810 H         1 <1>         0.026265 
     44 H           7.708505    1.125480   -0.893193 H         1 <1>         0.026265 
     45 H           9.876735    0.234036    0.000077 H         1 <1>         0.022978 
     46 H           9.001692   -1.042593   -0.895266 H         1 <1>         0.022978 
     47 H           9.001687   -1.043069    0.894735 H         1 <1>         0.022978 
@<TRIPOS>BOND
     1    1    2 1    
     2    1   16 1    
     3    1   17 1    
     4    1   18 1    
     5    2    3 1    
     6    2   19 1    
     7    2   20 1    
     8    3    4 1    
     9    3   21 1    
    10    3   22 1    
    11    4    5 1    
    12    4   23 1    
    13    4   24 1    
    14    5    6 1    
    15    5   25 1    
    16    5   26 1    
    17    6    7 1    
    18    6   27 1    
    19    6   28 1    
    20    7    8 1    
    21    7   29 1    
    22    7   30 1    
    23    8    9 1    
    24    8   31 1    
    25    8   32 1    
    26    9   10 1    
    27    9   33 1    
    28    9   34 1    
    29   10   11 1    
    30   10   35 1    
    31   10   36 1    
    32   11   12 1    
    33   11   37 1    
    34   11   38 1    
    35   12   13 1    
    36   12   39 1    
    37   12   40 1    
    38   13   14 1    
    39   13   41 1    
    40   13   42 1    
    41   14   15 1    
    42   14   43 1    
    43   14   44 1    
    44   15   45 1    
    45   15   46 1    
    46   15   47 1    
@<TRIPOS>SUBSTRUCTURE
     1 ****        1 TEMP              0 ****  ****    0 ROOT 
@<TRIPOS>NORMAL
@<TRIPOS>FF_PBC
FORCE_FIELD_SETUP_FEATURE Force Field Setup information
v1.0  0 0.000000 0.000000 0.000000 0.000000 0.000000 0.000000 NONE 0 0 0 0 1 0 0 0 0 0 0 0 0
