@<TRIPOS>MOLECULE
MOL002935
   53    56     1     1     0
SMALL
GASTEIGER


@<TRIPOS>ATOM
      1 C          -2.905567   -0.786943   -0.689131 C.3       1 <1>         0.181941 
      2 C          -4.064735   -1.824351   -0.681745 C.3       1 <1>         0.121572 
      3 C          -4.017609   -2.712996    0.588089 C.3       1 <1>         0.114776 
      4 C          -2.610384   -3.344876    0.719669 C.3       1 <1>         0.134557 
      5 C          -1.534327   -2.231060    0.719041 C.3       1 <1>         0.194566 
      6 O          -1.633890   -1.452824   -0.488476 O.3       1 <1>        -0.329338 
      7 O          -3.947358   -2.662961   -1.848271 O.3       1 <1>        -0.385750 
      8 O          -0.246501   -2.867715    0.738488 O.3       1 <1>        -0.309794 
      9 O          -2.563310   -4.111890    1.939233 O.3       1 <1>        -0.384091 
     10 O          -5.023001   -3.736125    0.452283 O.3       1 <1>        -0.386377 
     11 C          -2.885589   -0.152639   -2.066458 C.2       1 <1>         0.294322 
     12 C          -3.123124    0.373498    0.326489 C.3       1 <1>        -0.023728 
     13 O          -4.027838    0.425663   -2.453675 O.3       1 <1>        -0.329037 
     14 O          -1.894045   -0.156797   -2.779446 O.2       1 <1>        -0.261865 
     15 C           0.935653   -2.114660    0.684930 C.ar      1 <1>         0.114113 
     16 C           0.928014   -0.633737    0.554974 C.ar      1 <1>         0.002379 
     17 C           2.125058    0.073185    0.455093 C.ar      1 <1>         0.098982 
     18 C           3.415102   -0.640423    0.515937 C.ar      1 <1>         0.084484 
     19 C           3.452630   -2.039413    0.670708 C.ar      1 <1>         0.118241 
     20 C           2.176992   -2.796248    0.749223 C.ar      1 <1>         0.133671 
     21 O           2.218676   -4.187552    0.881147 O.3       1 <1>        -0.355372 
     22 O           4.676344   -2.706238    0.743343 O.3       1 <1>        -0.356594 
     23 C           4.635279    0.235225    0.400617 C.2       1 <1>         0.193594 
     24 O           2.090573    1.459395    0.296499 O.3       1 <1>        -0.307709 
     25 O           5.767235   -0.209820    0.496695 O.2       1 <1>        -0.287016 
     26 C           4.415359    1.667649    0.156738 C.2       1 <1>         0.016920 
     27 C           3.188679    2.212522    0.113305 C.2       1 <1>         0.093863 
     28 C           2.933826    3.686992   -0.149651 C.ar      1 <1>         0.005594 
     29 C           1.526185    4.114151   -0.367757 C.ar      1 <1>        -0.052112 
     30 C           1.204980    5.455962   -0.628709 C.ar      1 <1>        -0.061122 
     31 C           2.274334    6.477347   -0.692426 C.ar      1 <1>        -0.061721 
     32 C           3.603924    6.100630   -0.484896 C.ar      1 <1>        -0.061122 
     33 C           3.949026    4.686308   -0.202744 C.ar      1 <1>        -0.052112 
     34 H          -5.036326   -1.300295   -0.718461 H         1 <1>         0.065417 
     35 H          -4.235060   -2.114067    1.488368 H         1 <1>         0.064781 
     36 H          -2.437472   -3.998365   -0.153033 H         1 <1>         0.067108 
     37 H          -1.619365   -1.635232    1.640478 H         1 <1>         0.094184 
     38 H          -4.625324   -3.333296   -1.875842 H         1 <1>         0.210032 
     39 H          -1.714290   -4.526280    2.065511 H         1 <1>         0.210111 
     40 H          -5.017526   -4.342312    1.188268 H         1 <1>         0.210005 
     41 H          -3.199753    0.034055    1.366975 H         1 <1>         0.026325 
     42 H          -4.047564    0.923969    0.093416 H         1 <1>         0.026325 
     43 H          -2.279518    1.077101    0.258106 H         1 <1>         0.026325 
     44 H          -3.955861    0.800253   -3.325079 H         1 <1>         0.220302 
     45 H           0.009274   -0.065187    0.531766 H         1 <1>         0.067041 
     46 H           1.346959   -4.571169    0.874260 H         1 <1>         0.217502 
     47 H           4.559192   -3.645257    0.847934 H         1 <1>         0.217446 
     48 H           5.328658    2.236310    0.010098 H         1 <1>         0.068219 
     49 H           0.723064    3.385454   -0.327876 H         1 <1>         0.062424 
     50 H           0.171309    5.748295   -0.784885 H         1 <1>         0.061777 
     51 H           2.023484    7.512776   -0.899822 H         1 <1>         0.061759 
     52 H           4.390567    6.847180   -0.531388 H         1 <1>         0.061777 
     53 H           4.992076    4.451454   -0.040414 H         1 <1>         0.062424 
@<TRIPOS>BOND
     1    1    2 1    
     2    1    6 1    
     3    1   11 1    
     4    1   12 1    
     5    2    3 1    
     6    2    7 1    
     7    2   34 1    
     8    3    4 1    
     9    3   10 1    
    10    3   35 1    
    11    4    5 1    
    12    4    9 1    
    13    4   36 1    
    14    5    6 1    
    15    5    8 1    
    16    5   37 1    
    17    7   38 1    
    18    8   15 1    
    19    9   39 1    
    20   10   40 1    
    21   11   13 1    
    22   11   14 2    
    23   12   41 1    
    24   12   42 1    
    25   12   43 1    
    26   13   44 1    
    27   15   16 1    
    28   15   20 2    
    29   16   17 2    
    30   16   45 1    
    31   17   18 1    
    32   17   24 1    
    33   18   19 2    
    34   18   23 1    
    35   19   20 1    
    36   19   22 1    
    37   20   21 1    
    38   21   46 1    
    39   22   47 1    
    40   23   25 2    
    41   23   26 1    
    42   24   27 1    
    43   26   27 2    
    44   26   48 1    
    45   27   28 1    
    46   28   29 1    
    47   28   33 2    
    48   29   30 2    
    49   29   49 1    
    50   30   31 1    
    51   30   50 1    
    52   31   32 2    
    53   31   51 1    
    54   32   33 1    
    55   32   52 1    
    56   33   53 1    
@<TRIPOS>SUBSTRUCTURE
     1 ****        1 TEMP              0 ****  ****    0 ROOT 
@<TRIPOS>NORMAL
@<TRIPOS>FF_PBC
FORCE_FIELD_SETUP_FEATURE Force Field Setup information
v1.0  0 0.000000 0.000000 0.000000 0.000000 0.000000 0.000000 NONE 0 0 0 0 1 0 0 0 0 0 0 0 0
