@<TRIPOS>MOLECULE
MOL003587
   39    40     1     1     0
SMALL
GASTEIGER


@<TRIPOS>ATOM
      1 C          -0.088921    0.128847    0.046432 C.3       1 <1>        -0.016478 
      2 C           0.180456    1.660537   -0.129422 C.3       1 <1>        -0.037369 
      3 C          -1.639374    0.089839    0.217830 C.3       1 <1>        -0.014224 
      4 C          -0.963918    2.117104   -1.073943 C.3       1 <1>        -0.049373 
      5 C          -2.188634    1.249146   -0.670679 C.3       1 <1>        -0.045745 
      6 C           0.675291   -0.512682    1.241729 C.3       1 <1>        -0.042622 
      7 C           0.363540   -0.675893   -1.212787 C.3       1 <1>        -0.028047 
      8 C           2.212357   -0.352378    1.081109 C.3       1 <1>        -0.031467 
      9 C           0.113640    2.517647    1.173419 C.3       1 <1>        -0.061883 
     10 C          -2.333676   -1.254827    0.040679 C.2       1 <1>        -0.076069 
     11 C           1.862151   -0.741330   -1.359172 C.2       1 <1>        -0.084475 
     12 C           2.703396   -0.597622   -0.326042 C.2       1 <1>        -0.076494 
     13 C          -2.742236   -1.973065    1.311712 C.3       1 <1>        -0.043759 
     14 C          -2.593349   -1.800656   -1.157455 C.2       1 <1>        -0.099429 
     15 C           4.204632   -0.664596   -0.498388 C.3       1 <1>        -0.043787 
     16 H           1.166904    1.837703   -0.591230 H         1 <1>         0.030374 
     17 H          -1.835531    0.393979    1.258787 H         1 <1>         0.035098 
     18 H          -0.684367    1.930605   -2.123263 H         1 <1>         0.026821 
     19 H          -1.179864    3.195581   -0.997934 H         1 <1>         0.026821 
     20 H          -2.919982    1.851822   -0.104481 H         1 <1>         0.027123 
     21 H          -2.703973    0.899065   -1.576905 H         1 <1>         0.027123 
     22 H           0.443966   -1.589679    1.262917 H         1 <1>         0.027398 
     23 H           0.355205   -0.098901    2.210492 H         1 <1>         0.027398 
     24 H          -0.068881   -0.271015   -2.136972 H         1 <1>         0.031302 
     25 H           0.046874   -1.726644   -1.136552 H         1 <1>         0.031302 
     26 H           2.713206   -1.046933    1.775158 H         1 <1>         0.031007 
     27 H           2.528471    0.665515    1.349739 H         1 <1>         0.031007 
     28 H           0.314172    3.571193    0.922424 H         1 <1>         0.023259 
     29 H          -0.873943    2.476725    1.653053 H         1 <1>         0.023259 
     30 H           0.866981    2.220972    1.914013 H         1 <1>         0.023259 
     31 H           2.257311   -0.925584   -2.359246 H         1 <1>         0.057172 
     32 H          -1.877370   -2.086234    1.981077 H         1 <1>         0.027436 
     33 H          -3.512751   -1.382112    1.829525 H         1 <1>         0.027436 
     34 H          -3.154579   -2.975970    1.123238 H         1 <1>         0.027436 
     35 H          -3.099387   -2.761254   -1.246112 H         1 <1>         0.053440 
     36 H          -2.318723   -1.331459   -2.099510 H         1 <1>         0.053440 
     37 H           4.657226    0.271395   -0.138063 H         1 <1>         0.027436 
     38 H           4.506437   -0.808880   -1.546763 H         1 <1>         0.027436 
     39 H           4.605945   -1.501758    0.092081 H         1 <1>         0.027436 
@<TRIPOS>BOND
     1    1    2 1    
     2    1    3 1    
     3    1    6 1    
     4    1    7 1    
     5    2    4 1    
     6    2    9 1    
     7    2   16 1    
     8    3    5 1    
     9    3   10 1    
    10    3   17 1    
    11    4    5 1    
    12    4   18 1    
    13    4   19 1    
    14    5   20 1    
    15    5   21 1    
    16    6    8 1    
    17    6   22 1    
    18    6   23 1    
    19    7   11 1    
    20    7   24 1    
    21    7   25 1    
    22    8   12 1    
    23    8   26 1    
    24    8   27 1    
    25    9   28 1    
    26    9   29 1    
    27    9   30 1    
    28   10   13 1    
    29   10   14 2    
    30   11   12 2    
    31   11   31 1    
    32   12   15 1    
    33   13   32 1    
    34   13   33 1    
    35   13   34 1    
    36   14   35 1    
    37   14   36 1    
    38   15   37 1    
    39   15   38 1    
    40   15   39 1    
@<TRIPOS>SUBSTRUCTURE
     1 ****        1 TEMP              0 ****  ****    0 ROOT 
@<TRIPOS>NORMAL
@<TRIPOS>FF_PBC
FORCE_FIELD_SETUP_FEATURE Force Field Setup information
v1.0  0 0.000000 0.000000 0.000000 0.000000 0.000000 0.000000 NONE 0 0 0 0 1 0 0 0 0 0 0 0 0
