@<TRIPOS>MOLECULE
MOL000128
   34    33     1     1     0
SMALL
GASTEIGER


@<TRIPOS>ATOM
      1 C           1.366337    1.088232   -0.000038 C.2       1 <1>        -0.074085 
      2 C           0.021940    1.795212   -0.000073 C.3       1 <1>        -0.028491 
      3 C           1.508594   -0.248031   -0.000353 C.2       1 <1>        -0.059103 
      4 C           2.578238    1.996882    0.000391 C.3       1 <1>        -0.043707 
      5 C          -1.255462    0.910751   -0.000123 C.3       1 <1>        -0.030847 
      6 C           2.846346   -0.946857   -0.000291 C.3       1 <1>         0.075485 
      7 C          -2.521635    1.736784   -0.000099 C.2       1 <1>        -0.084989 
      8 O           2.625216   -2.372813   -0.000007 O.3       1 <1>        -0.311276 
      9 C          -3.765175    1.230179    0.000085 C.2       1 <1>        -0.079608 
     10 C           3.753288   -3.098650   -0.000017 C.2       1 <1>         0.259328 
     11 C          -4.954271    2.165111    0.000114 C.3       1 <1>        -0.044049 
     12 C          -4.085294   -0.249386    0.000314 C.3       1 <1>        -0.044049 
     13 C           3.565752   -4.590516    0.000050 C.3       1 <1>         0.021444 
     14 O           4.871277   -2.607020   -0.000109 O.2       1 <1>        -0.265273 
     15 H          -0.013504    2.440139    0.893154 H         1 <1>         0.031286 
     16 H          -0.013441    2.440181   -0.893273 H         1 <1>         0.031286 
     17 H           0.646659   -0.912162   -0.000682 H         1 <1>         0.059434 
     18 H           2.295638    3.060761   -0.000239 H         1 <1>         0.027437 
     19 H           3.188602    1.814804    0.897211 H         1 <1>         0.027437 
     20 H           3.189884    1.814136   -0.895418 H         1 <1>         0.027437 
     21 H          -1.254099    0.278222   -0.902331 H         1 <1>         0.031044 
     22 H          -1.254016    0.278149    0.902035 H         1 <1>         0.031044 
     23 H           3.408824   -0.653274    0.900944 H         1 <1>         0.061016 
     24 H           3.408622   -0.653666   -0.901779 H         1 <1>         0.061016 
     25 H          -2.419739    2.823213   -0.000224 H         1 <1>         0.057155 
     26 H          -5.911114    1.620960   -0.001696 H         1 <1>         0.027427 
     27 H          -4.922501    2.803054    0.896448 H         1 <1>         0.027427 
     28 H          -4.920714    2.805720   -0.894256 H         1 <1>         0.027427 
     29 H          -3.201428   -0.901308    0.000491 H         1 <1>         0.027427 
     30 H          -4.680373   -0.488401    0.894548 H         1 <1>         0.027427 
     31 H          -4.680209   -0.488719   -0.893947 H         1 <1>         0.027427 
     32 H           2.497899   -4.856775    0.000431 H         1 <1>         0.033023 
     33 H           4.039504   -5.017291   -0.896145 H         1 <1>         0.033023 
     34 H           4.040152   -5.017321    0.895889 H         1 <1>         0.033023 
@<TRIPOS>BOND
     1    1    2 1    
     2    1    3 2    
     3    1    4 1    
     4    2    5 1    
     5    2   15 1    
     6    2   16 1    
     7    3    6 1    
     8    3   17 1    
     9    4   18 1    
    10    4   19 1    
    11    4   20 1    
    12    5    7 1    
    13    5   21 1    
    14    5   22 1    
    15    6    8 1    
    16    6   23 1    
    17    6   24 1    
    18    7    9 2    
    19    7   25 1    
    20    8   10 1    
    21    9   11 1    
    22    9   12 1    
    23   10   13 1    
    24   10   14 2    
    25   11   26 1    
    26   11   27 1    
    27   11   28 1    
    28   12   29 1    
    29   12   30 1    
    30   12   31 1    
    31   13   32 1    
    32   13   33 1    
    33   13   34 1    
@<TRIPOS>SUBSTRUCTURE
     1 ****        1 TEMP              0 ****  ****    0 ROOT 
@<TRIPOS>NORMAL
@<TRIPOS>FF_PBC
FORCE_FIELD_SETUP_FEATURE Force Field Setup information
v1.0  0 0.000000 0.000000 0.000000 0.000000 0.000000 0.000000 NONE 0 0 0 0 1 0 0 0 0 0 0 0 0
