@<TRIPOS>MOLECULE
MOL004855
   50    52     1     1     0
SMALL
GASTEIGER


@<TRIPOS>ATOM
      1 C          -2.809194   -0.405886    0.307216 C.2       1 <1>         0.058417 
      2 C          -2.178201    0.702707   -0.111182 C.2       1 <1>         0.057505 
      3 C          -2.949201    1.831487   -0.662315 C.2       1 <1>         0.198256 
      4 C          -4.441519    1.805802   -0.463219 C.ar      1 <1>         0.052907 
      5 C          -4.994339    0.524150    0.015278 C.ar      1 <1>         0.095569 
      6 O          -4.144825   -0.548940    0.283425 O.3       1 <1>        -0.315351 
      7 C          -6.370790    0.386786    0.210635 C.ar      1 <1>        -0.000723 
      8 C          -7.277735    1.537494   -0.038798 C.ar      1 <1>         0.075081 
      9 C          -6.745159    2.759813   -0.468224 C.ar      1 <1>        -0.031105 
     10 C          -5.286723    2.902763   -0.699150 C.ar      1 <1>        -0.045981 
     11 O          -2.413960    2.754777   -1.254783 O.2       1 <1>        -0.286476 
     12 C          -0.669222    0.797130    0.015807 C.ar      1 <1>         0.047782 
     13 C           0.203217   -0.349410   -0.359846 C.ar      1 <1>         0.092048 
     14 C           1.607392   -0.282408   -0.161192 C.ar      1 <1>         0.016970 
     15 C           2.205007    0.963614    0.390059 C.ar      1 <1>         0.084196 
     16 C           1.377151    2.054473    0.692462 C.ar      1 <1>        -0.000878 
     17 C          -0.087782    1.971162    0.520339 C.ar      1 <1>         0.085380 
     18 C           2.479905   -1.503366   -0.511296 C.3       1 <1>        -0.004325 
     19 C           3.984271   -1.388510   -0.629003 C.2       1 <1>        -0.080815 
     20 C           4.844224   -2.352943   -0.247115 C.2       1 <1>        -0.079306 
     21 C           6.341947   -2.152747   -0.328566 C.3       1 <1>        -0.044040 
     22 C           4.402866   -3.706175    0.280560 C.3       1 <1>        -0.044040 
     23 O           3.584988    1.033507    0.613543 O.3       1 <1>        -0.347465 
     24 C           4.309984    2.233179    0.285317 C.3       1 <1>         0.043040 
     25 O          -0.402329   -1.483884   -0.921559 O.3       1 <1>        -0.346856 
     26 C          -0.343794   -2.773362   -0.275003 C.3       1 <1>         0.043065 
     27 O          -0.866529    3.065069    0.895358 O.3       1 <1>        -0.359057 
     28 O          -8.655258    1.422396    0.155054 O.3       1 <1>        -0.359749 
     29 H          -2.270774   -1.253682    0.716244 H         1 <1>         0.089751 
     30 H          -6.764361   -0.562357    0.554517 H         1 <1>         0.066945 
     31 H          -7.407370    3.601661   -0.630169 H         1 <1>         0.064341 
     32 H          -4.875437    3.846402   -1.046242 H         1 <1>         0.062621 
     33 H           1.785324    2.979170    1.078349 H         1 <1>         0.066939 
     34 H           2.254078   -2.189619    0.314713 H         1 <1>         0.035722 
     35 H           2.137636   -1.915628   -1.471375 H         1 <1>         0.035722 
     36 H           4.380852   -0.474020   -1.067603 H         1 <1>         0.057473 
     37 H           6.622946   -1.114705   -0.561462 H         1 <1>         0.027427 
     38 H           6.800857   -2.417494    0.637018 H         1 <1>         0.027427 
     39 H           6.758647   -2.812663   -1.106099 H         1 <1>         0.027427 
     40 H           5.185311   -4.464853    0.118922 H         1 <1>         0.027427 
     41 H           3.499913   -4.074059   -0.228687 H         1 <1>         0.027427 
     42 H           4.211138   -3.639963    1.361623 H         1 <1>         0.027427 
     43 H           5.381432    2.000118    0.368692 H         1 <1>         0.052870 
     44 H           4.092865    3.060464    0.975679 H         1 <1>         0.052870 
     45 H           4.096734    2.547291   -0.747708 H         1 <1>         0.052870 
     46 H          -1.262703   -3.307498   -0.553204 H         1 <1>         0.052870 
     47 H           0.493278   -3.389801   -0.627164 H         1 <1>         0.052870 
     48 H          -0.308410   -2.694045    0.822161 H         1 <1>         0.052870 
     49 H          -1.576630    2.827037    1.479324 H         1 <1>         0.217341 
     50 H          -8.946582    0.529891    0.302878 H         1 <1>         0.217315 
@<TRIPOS>BOND
     1    1    2 2    
     2    1    6 1    
     3    1   29 1    
     4    2    3 1    
     5    2   12 1    
     6    3    4 1    
     7    3   11 2    
     8    4    5 1    
     9    4   10 2    
    10    5    6 1    
    11    5    7 2    
    12    7    8 1    
    13    7   30 1    
    14    8    9 2    
    15    8   28 1    
    16    9   10 1    
    17    9   31 1    
    18   10   32 1    
    19   12   13 1    
    20   12   17 2    
    21   13   14 2    
    22   13   25 1    
    23   14   15 1    
    24   14   18 1    
    25   15   16 2    
    26   15   23 1    
    27   16   17 1    
    28   16   33 1    
    29   17   27 1    
    30   18   19 1    
    31   18   34 1    
    32   18   35 1    
    33   19   20 2    
    34   19   36 1    
    35   20   21 1    
    36   20   22 1    
    37   21   37 1    
    38   21   38 1    
    39   21   39 1    
    40   22   40 1    
    41   22   41 1    
    42   22   42 1    
    43   23   24 1    
    44   24   43 1    
    45   24   44 1    
    46   24   45 1    
    47   25   26 1    
    48   26   46 1    
    49   26   47 1    
    50   26   48 1    
    51   27   49 1    
    52   28   50 1    
@<TRIPOS>SUBSTRUCTURE
     1 ****        1 TEMP              0 ****  ****    0 ROOT 
@<TRIPOS>NORMAL
@<TRIPOS>FF_PBC
FORCE_FIELD_SETUP_FEATURE Force Field Setup information
v1.0  0 0.000000 0.000000 0.000000 0.000000 0.000000 0.000000 NONE 0 0 0 0 1 0 0 0 0 0 0 0 0
