@<TRIPOS>MOLECULE
MOL004561
   43    46     1     1     0
SMALL
GASTEIGER


@<TRIPOS>ATOM
      1 C           1.083201   -3.196249    1.549771 C.ar      1 <1>        -0.059697 
      2 C           0.533846   -4.257390    2.420509 C.ar      1 <1>        -0.061629 
      3 C          -0.609022   -4.008841    3.205305 C.ar      1 <1>        -0.059697 
      4 C          -1.250391   -2.673706    3.165566 C.ar      1 <1>        -0.034546 
      5 C          -0.682028   -1.653805    2.378976 C.ar      1 <1>         0.086168 
      6 C           0.498631   -1.941345    1.530241 C.ar      1 <1>        -0.034546 
      7 N          -1.180733   -0.402852    2.404661 N.2       1 <1>        -0.149310 
      8 N          -0.259251    0.571015    2.507766 N.2       1 <1>        -0.149242 
      9 C          -0.307291    1.622871    1.675378 C.ar      1 <1>         0.088232 
     10 C          -1.508817    2.493967    1.628104 C.ar      1 <1>        -0.034413 
     11 C          -1.509562    3.634946    0.810977 C.ar      1 <1>        -0.057636 
     12 C          -0.330287    3.933070   -0.035050 C.ar      1 <1>        -0.034413 
     13 C           0.772845    3.074606   -0.044502 C.ar      1 <1>         0.088233 
     14 C           0.794418    1.902686    0.862647 C.ar      1 <1>        -0.007369 
     15 N           1.797129    3.334525   -0.884494 N.2       1 <1>        -0.149145 
     16 N           2.246528    2.427331   -1.780525 N.2       1 <1>        -0.146084 
     17 C           1.785555    1.160543   -1.822075 C.ar      1 <1>         0.123388 
     18 C           0.362421    0.842485   -2.103246 C.ar      1 <1>         0.011786 
     19 C          -0.075877   -0.571406   -2.052945 C.ar      1 <1>        -0.015637 
     20 C           0.931677   -1.632428   -1.821906 C.ar      1 <1>        -0.051466 
     21 C           2.271363   -1.303581   -1.602270 C.ar      1 <1>        -0.029196 
     22 C           2.718481    0.110558   -1.579439 C.ar      1 <1>         0.100238 
     23 C          -0.584511    1.845738   -2.408417 C.ar      1 <1>        -0.051860 
     24 C          -2.012759    1.497398   -2.599060 C.ar      1 <1>        -0.061100 
     25 C          -2.434244    0.164022   -2.496939 C.ar      1 <1>        -0.061165 
     26 C          -1.441853   -0.904957   -2.230528 C.ar      1 <1>        -0.053962 
     27 O           4.056488    0.404046   -1.310233 O.3       1 <1>        -0.357636 
     28 H           1.945125   -3.400950    0.923634 H         1 <1>         0.061823 
     29 H           1.020022   -5.224952    2.453375 H         1 <1>         0.061760 
     30 H          -1.014223   -4.778871    3.850562 H         1 <1>         0.061823 
     31 H          -2.140884   -2.477747    3.748959 H         1 <1>         0.063926 
     32 H           0.900432   -1.164283    0.891266 H         1 <1>         0.063926 
     33 H          -2.379588    2.251217    2.225684 H         1 <1>         0.063928 
     34 H          -2.374292    4.293305    0.789658 H         1 <1>         0.061888 
     35 H          -0.326771    4.815245   -0.667959 H         1 <1>         0.063928 
     36 H           1.673629    1.266312    0.905208 H         1 <1>         0.066108 
     37 H           0.618344   -2.670191   -1.830827 H         1 <1>         0.062442 
     38 H           2.995837   -2.095211   -1.442752 H         1 <1>         0.064407 
     39 H          -0.278776    2.880558   -2.502154 H         1 <1>         0.062429 
     40 H          -2.733955    2.280594   -2.806316 H         1 <1>         0.061777 
     41 H          -3.483125   -0.089742   -2.611243 H         1 <1>         0.061776 
     42 H          -1.769014   -1.934822   -2.179472 H         1 <1>         0.062363 
     43 H           4.211901    1.345916   -1.297564 H         1 <1>         0.217403 
@<TRIPOS>BOND
     1    1    2 1    
     2    1    6 2    
     3    1   28 1    
     4    2    3 2    
     5    2   29 1    
     6    3    4 1    
     7    3   30 1    
     8    4    5 2    
     9    4   31 1    
    10    5    6 1    
    11    5    7 1    
    12    6   32 1    
    13    7    8 2    
    14    8    9 1    
    15    9   10 1    
    16    9   14 2    
    17   10   11 2    
    18   10   33 1    
    19   11   12 1    
    20   11   34 1    
    21   12   13 2    
    22   12   35 1    
    23   13   14 1    
    24   13   15 1    
    25   14   36 1    
    26   15   16 2    
    27   16   17 1    
    28   17   18 1    
    29   17   22 2    
    30   18   19 1    
    31   18   23 2    
    32   19   20 1    
    33   19   26 2    
    34   20   21 2    
    35   20   37 1    
    36   21   22 1    
    37   21   38 1    
    38   22   27 1    
    39   23   24 1    
    40   23   39 1    
    41   24   25 2    
    42   24   40 1    
    43   25   26 1    
    44   25   41 1    
    45   26   42 1    
    46   27   43 1    
@<TRIPOS>SUBSTRUCTURE
     1 ****        1 TEMP              0 ****  ****    0 ROOT 
@<TRIPOS>NORMAL
@<TRIPOS>FF_PBC
FORCE_FIELD_SETUP_FEATURE Force Field Setup information
v1.0  0 0.000000 0.000000 0.000000 0.000000 0.000000 0.000000 NONE 0 0 0 0 1 0 0 0 0 0 0 0 0
