@<TRIPOS>MOLECULE
MOL002497
   53    53     1     1     0
SMALL
GASTEIGER


@<TRIPOS>ATOM
      1 C           2.321408   -3.936286    0.236957 C.ar      1 <1>        -0.044363 
      2 C           2.975226   -5.181179    0.700989 C.ar      1 <1>        -0.025965 
      3 C           0.918068   -3.950702    0.048178 C.ar      1 <1>        -0.055971 
      4 C           3.217648   -2.708046   -0.004644 C.3       1 <1>        -0.020924 
      5 C           2.248381   -6.354997    0.963967 C.ar      1 <1>         0.105659 
      6 C           0.137149   -5.179879    0.319276 C.ar      1 <1>        -0.029141 
      7 C           2.443403   -1.383086   -0.221109 C.3       1 <1>         0.009887 
      8 C           0.770658   -6.363563    0.770852 C.ar      1 <1>         0.102451 
      9 O           2.966264   -7.477985    1.401572 O.3       1 <1>        -0.345341 
     10 C           3.326029   -0.160542   -0.306994 C.2       1 <1>         0.136114 
     11 O           0.015853   -7.514248    1.026910 O.3       1 <1>        -0.357269 
     12 C           2.335327   -8.729955    1.712292 C.3       1 <1>         0.043136 
     13 C           2.701992    1.143746   -0.749890 C.3       1 <1>         0.031865 
     14 O           4.515953   -0.220932   -0.037010 O.2       1 <1>        -0.297311 
     15 C           1.293838    1.374702   -0.134325 C.3       1 <1>         0.061899 
     16 C           0.733101    2.778000   -0.507022 C.3       1 <1>        -0.026454 
     17 O           1.440304    1.226955    1.291770 O.3       1 <1>        -0.391370 
     18 C          -0.786858    2.897103   -0.204747 C.3       1 <1>        -0.050713 
     19 C          -1.349740    4.285758   -0.607976 C.3       1 <1>        -0.052977 
     20 C          -2.884275    4.328057   -0.376734 C.3       1 <1>        -0.053064 
     21 C          -3.480265    5.715737   -0.732506 C.3       1 <1>        -0.053306 
     22 C          -5.020178    5.721106   -0.529325 C.3       1 <1>        -0.055911 
     23 C          -5.628580    7.111296   -0.847936 C.3       1 <1>        -0.065276 
     24 H           0.604209    0.609608   -0.535936 H         1 <1>         0.059722 
     25 H           4.049381   -5.191165    0.845513 H         1 <1>         0.064684 
     26 H           0.377508   -3.077225   -0.292153 H         1 <1>         0.062110 
     27 H           3.857604   -2.903542   -0.880752 H         1 <1>         0.031720 
     28 H           3.864428   -2.590069    0.880663 H         1 <1>         0.031720 
     29 H          -0.936478   -5.159712    0.164691 H         1 <1>         0.064412 
     30 H           1.761990   -1.253189    0.634075 H         1 <1>         0.034471 
     31 H           1.865167   -1.448865   -1.155970 H         1 <1>         0.034471 
     32 H          -0.924734   -7.380730    0.992918 H         1 <1>         0.217422 
     33 H           3.126623   -9.423875    2.032014 H         1 <1>         0.052871 
     34 H           1.617195   -8.621012    2.540349 H         1 <1>         0.052871 
     35 H           1.840170   -9.157657    0.826348 H         1 <1>         0.052871 
     36 H           3.360669    1.968863   -0.433008 H         1 <1>         0.036674 
     37 H           2.644285    1.143671   -1.850152 H         1 <1>         0.036674 
     38 H           0.882170    2.951105   -1.585929 H         1 <1>         0.029013 
     39 H           1.290342    3.548926    0.049512 H         1 <1>         0.029013 
     40 H           0.622434    1.273229    1.771586 H         1 <1>         0.209791 
     41 H          -0.978252    2.748654    0.868615 H         1 <1>         0.026608 
     42 H          -1.327511    2.115495   -0.762746 H         1 <1>         0.026608 
     43 H          -1.136346    4.481842   -1.672487 H         1 <1>         0.026529 
     44 H          -0.858172    5.069401   -0.005842 H         1 <1>         0.026529 
     45 H          -3.101193    4.101363    0.681163 H         1 <1>         0.026528 
     46 H          -3.366459    3.556461   -1.001605 H         1 <1>         0.026528 
     47 H          -3.248611    5.957122   -1.783715 H         1 <1>         0.026520 
     48 H          -3.020323    6.485208   -0.090805 H         1 <1>         0.026520 
     49 H          -5.255821    5.455267    0.515132 H         1 <1>         0.026265 
     50 H          -5.479799    4.965111   -1.189125 H         1 <1>         0.026265 
     51 H          -6.720888    7.085329   -0.702881 H         1 <1>         0.022978 
     52 H          -5.417785    7.392293   -1.892386 H         1 <1>         0.022978 
     53 H          -5.202611    7.876833   -0.179934 H         1 <1>         0.022978 
@<TRIPOS>BOND
     1    1    2 1    
     2    1    3 2    
     3    1    4 1    
     4    2    5 2    
     5    2   25 1    
     6    3    6 1    
     7    3   26 1    
     8    4    7 1    
     9    4   27 1    
    10    4   28 1    
    11    5    8 1    
    12    5    9 1    
    13    6    8 2    
    14    6   29 1    
    15    7   10 1    
    16    7   30 1    
    17    7   31 1    
    18    8   11 1    
    19    9   12 1    
    20   10   13 1    
    21   10   14 2    
    22   11   32 1    
    23   12   33 1    
    24   12   34 1    
    25   12   35 1    
    26   13   15 1    
    27   13   36 1    
    28   13   37 1    
    29   15   16 1    
    30   15   17 1    
    31   15   24 1    
    32   16   18 1    
    33   16   38 1    
    34   16   39 1    
    35   17   40 1    
    36   18   19 1    
    37   18   41 1    
    38   18   42 1    
    39   19   20 1    
    40   19   43 1    
    41   19   44 1    
    42   20   21 1    
    43   20   45 1    
    44   20   46 1    
    45   21   22 1    
    46   21   47 1    
    47   21   48 1    
    48   22   23 1    
    49   22   49 1    
    50   22   50 1    
    51   23   51 1    
    52   23   52 1    
    53   23   53 1    
@<TRIPOS>SUBSTRUCTURE
     1 ****        1 TEMP              0 ****  ****    0 ROOT 
@<TRIPOS>NORMAL
@<TRIPOS>FF_PBC
FORCE_FIELD_SETUP_FEATURE Force Field Setup information
v1.0  0 0.000000 0.000000 0.000000 0.000000 0.000000 0.000000 NONE 0 0 0 0 1 0 0 0 0 0 0 0 0
