@<TRIPOS>MOLECULE
MOL004832
   27    27     1     1     0
SMALL
GASTEIGER


@<TRIPOS>ATOM
      1 C          -0.620849    3.648139    0.000322 C.ar      1 <1>        -0.048875 
      2 C          -0.300379    2.191162   -0.000299 C.ar      1 <1>         0.046474 
      3 C           1.075608    1.853770   -0.000744 C.ar      1 <1>        -0.048875 
      4 C           2.132812    2.894504   -0.000453 C.ar      1 <1>        -0.061020 
      5 C           1.799249    4.247088    0.000152 C.ar      1 <1>        -0.061719 
      6 C           0.372770    4.633233    0.000574 C.ar      1 <1>        -0.061020 
      7 C          -1.506071    1.255753   -0.000463 C.2       1 <1>         0.293809 
      8 O          -1.620864   -0.088458   -0.000374 O.3       1 <1>        -0.311432 
      9 O          -2.599383    1.797033   -0.000645 O.2       1 <1>        -0.259226 
     10 C          -0.452021   -0.916706   -0.000306 C.3       1 <1>         0.057383 
     11 C          -0.942079   -2.387652    0.000078 C.3       1 <1>        -0.029112 
     12 C           0.243761   -3.390965    0.000043 C.3       1 <1>        -0.053815 
     13 C          -0.260990   -4.857568    0.000296 C.3       1 <1>        -0.065205 
     14 H          -1.653655    3.981535    0.000662 H         1 <1>         0.062527 
     15 H           1.435432    0.840666   -0.001284 H         1 <1>         0.062527 
     16 H           3.177974    2.599627   -0.000753 H         1 <1>         0.061778 
     17 H           2.572856    5.008565    0.000362 H         1 <1>         0.061759 
     18 H           0.100888    5.684415    0.001012 H         1 <1>         0.061778 
     19 H           0.140294   -0.760426   -0.916153 H         1 <1>         0.056589 
     20 H           0.140605   -0.759987    0.915269 H         1 <1>         0.056589 
     21 H          -1.567697   -2.554644    0.892648 H         1 <1>         0.028740 
     22 H          -1.568029   -2.554988   -0.892196 H         1 <1>         0.028740 
     23 H           0.868426   -3.225596   -0.893649 H         1 <1>         0.026335 
     24 H           0.868673   -3.225354    0.893516 H         1 <1>         0.026335 
     25 H           0.593333   -5.552997    0.000280 H         1 <1>         0.022978 
     26 H          -0.871777   -5.053871    0.895358 H         1 <1>         0.022978 
     27 H          -0.871992   -5.054103   -0.894571 H         1 <1>         0.022978 
@<TRIPOS>BOND
     1    1    2 1    
     2    1    6 2    
     3    1   14 1    
     4    2    3 2    
     5    2    7 1    
     6    3    4 1    
     7    3   15 1    
     8    4    5 2    
     9    4   16 1    
    10    5    6 1    
    11    5   17 1    
    12    6   18 1    
    13    7    8 1    
    14    7    9 2    
    15    8   10 1    
    16   10   11 1    
    17   10   19 1    
    18   10   20 1    
    19   11   12 1    
    20   11   21 1    
    21   11   22 1    
    22   12   13 1    
    23   12   23 1    
    24   12   24 1    
    25   13   25 1    
    26   13   26 1    
    27   13   27 1    
@<TRIPOS>SUBSTRUCTURE
     1 ****        1 TEMP              0 ****  ****    0 ROOT 
@<TRIPOS>NORMAL
@<TRIPOS>FF_PBC
FORCE_FIELD_SETUP_FEATURE Force Field Setup information
v1.0  0 0.000000 0.000000 0.000000 0.000000 0.000000 0.000000 NONE 0 0 0 0 1 0 0 0 0 0 0 0 0
