@<TRIPOS>MOLECULE
MOL002292
  101   108     1     1     0
SMALL
GASTEIGER


@<TRIPOS>ATOM
      1 O           1.701512    5.023011    0.856538 O.3       1 <1>        -0.311833 
      2 O          -4.235572   11.559252    0.952953 O.3       1 <1>        -0.311833 
      3 O           3.032195    3.343061   -0.070087 O.3       1 <1>        -0.340168 
      4 O          -5.346383   12.973173   -0.656689 O.3       1 <1>        -0.340168 
      5 O           2.601752    4.618615   -2.808333 O.3       1 <1>        -0.384091 
      6 O          -7.912499   11.943911    0.313198 O.3       1 <1>        -0.384091 
      7 O           3.930762    6.865989   -0.239420 O.3       1 <1>        -0.386401 
      8 O          -5.475998   12.924495    2.898920 O.3       1 <1>        -0.386401 
      9 O           5.135531    3.795152   -2.035250 O.3       1 <1>        -0.386488 
     10 O          -7.686068   14.679386    0.477058 O.3       1 <1>        -0.386488 
     11 O           2.125836    5.645758    3.466905 O.2       1 <1>        -0.286459 
     12 O          -2.138235   12.561925    2.634529 O.2       1 <1>        -0.286459 
     13 O           3.953338    6.688156    5.103713 O.3       1 <1>        -0.359104 
     14 O          -2.198536   13.772942    5.176270 O.3       1 <1>        -0.359093 
     15 O           5.823360    4.858505    1.971426 O.3       1 <1>        -0.392366 
     16 O          -3.762485   15.910812    1.023891 O.3       1 <1>        -0.392366 
     17 O           3.263824   10.995416    7.944744 O.3       1 <1>        -0.390415 
     18 O           0.195394   11.711219    9.554371 O.3       1 <1>        -0.327489 
     19 O          -0.246846    9.618946    9.158787 O.2       1 <1>        -0.259428 
     20 C           0.009970    9.232868    3.123296 C.3       1 <1>         0.021577 
     21 C          -1.240522    9.045920    4.036809 C.3       1 <1>         0.021588 
     22 C          -0.030897    8.212453    1.975445 C.ar      1 <1>        -0.025759 
     23 C          -2.496734    9.098537    3.158931 C.ar      1 <1>        -0.025759 
     24 C           1.273007    9.169976    3.994121 C.ar      1 <1>        -0.025441 
     25 C          -1.278234   10.184317    5.059022 C.ar      1 <1>        -0.025032 
     26 C           0.806928    6.989141    2.000628 C.ar      1 <1>         0.056150 
     27 C          -2.921286   10.291689    2.673984 C.ar      1 <1>         0.056150 
     28 C           2.071568    7.924419    4.076946 C.ar      1 <1>         0.055799 
     29 C          -1.736208   11.385862    4.667109 C.ar      1 <1>         0.055821 
     30 C           1.697985    6.756603    3.196752 C.2       1 <1>         0.198636 
     31 C          -2.257487   11.520323    3.254011 C.2       1 <1>         0.198636 
     32 C           2.072374    4.370886   -0.376283 C.3       1 <1>         0.193669 
     33 C           2.572704    5.298123   -1.532961 C.3       1 <1>         0.134509 
     34 C          -5.431859   11.802868    0.178521 C.3       1 <1>         0.193669 
     35 C          -6.692511   11.881341    1.081526 C.3       1 <1>         0.134509 
     36 C           3.993732    5.845951   -1.255983 C.3       1 <1>         0.114074 
     37 C          -6.570785   13.134508    1.982615 C.3       1 <1>         0.114074 
     38 C           0.781621    6.079269    0.897928 C.ar      1 <1>         0.090545 
     39 C          -3.981650   10.348662    1.631774 C.ar      1 <1>         0.090545 
     40 C           1.678017   10.311388    4.746914 C.ar      1 <1>        -0.051767 
     41 C           4.944261    4.669941   -0.901547 C.3       1 <1>         0.111896 
     42 C          -6.413746   14.406989    1.102970 C.3       1 <1>         0.111896 
     43 C          -0.874523    8.443567    0.852446 C.ar      1 <1>        -0.057128 
     44 C          -3.228095    7.853822    2.825736 C.ar      1 <1>        -0.057128 
     45 C           4.351620    3.828557    0.260645 C.3       1 <1>         0.113017 
     46 C          -0.797024    9.980998    6.446128 C.ar      1 <1>        -0.044250 
     47 C          -5.286926   14.231351    0.041622 C.3       1 <1>         0.113017 
     48 C           3.189063    7.851283    4.975229 C.ar      1 <1>         0.083995 
     49 C          -1.728490   12.528754    5.609771 C.ar      1 <1>         0.084406 
     50 C           2.822769   10.226295    5.685182 C.ar      1 <1>        -0.019442 
     51 C          -0.215804    6.282441   -0.185497 C.ar      1 <1>        -0.030849 
     52 C          -4.654902    9.186976    1.341196 C.ar      1 <1>        -0.030849 
     53 C          -1.004782    7.426799   -0.212353 C.ar      1 <1>        -0.059004 
     54 C          -4.272778    7.905855    1.983209 C.ar      1 <1>        -0.059004 
     55 C          -0.780026   11.014780    7.329573 C.ar      1 <1>         0.049022 
     56 C           3.551559    9.037088    5.784236 C.ar      1 <1>        -0.025865 
     57 C          -1.273174   12.345384    6.880582 C.ar      1 <1>        -0.018357 
     58 C           4.458492    4.525175    1.647601 C.3       1 <1>         0.073015 
     59 C          -3.872366   14.538219    0.592366 C.3       1 <1>         0.073015 
     60 C           3.206678   11.418744    6.568914 C.3       1 <1>         0.069320 
     61 C          -0.264230   10.762076    8.734800 C.2       1 <1>         0.291326 
     62 H           0.002210   10.228630    2.650968 H         1 <1>         0.040672 
     63 H          -1.175483    8.074058    4.553479 H         1 <1>         0.040672 
     64 H           1.188345    3.812330   -0.718223 H         1 <1>         0.094160 
     65 H           1.921492    6.179220   -1.644527 H         1 <1>         0.067108 
     66 H          -5.541601   11.019718   -0.586437 H         1 <1>         0.094160 
     67 H          -6.737554   11.000140    1.742513 H         1 <1>         0.067108 
     68 H           4.351463    6.330223   -2.182613 H         1 <1>         0.064758 
     69 H          -7.503720   13.227134    2.566014 H         1 <1>         0.064758 
     70 H           5.931153    5.063772   -0.606578 H         1 <1>         0.064673 
     71 H          -6.178759   15.261733    1.760812 H         1 <1>         0.064673 
     72 H           1.139604   11.247695    4.650781 H         1 <1>         0.062412 
     73 H          -1.444192    9.359935    0.758328 H         1 <1>         0.062069 
     74 H          -2.930601    6.906938    3.268105 H         1 <1>         0.062069 
     75 H           4.966407    2.916902    0.335883 H         1 <1>         0.064668 
     76 H          -5.444111   14.979712   -0.752575 H         1 <1>         0.064668 
     77 H          -0.451660    8.996828    6.746727 H         1 <1>         0.062839 
     78 H          -0.353581    5.544432   -0.966362 H         1 <1>         0.064350 
     79 H          -5.464586    9.149336    0.628741 H         1 <1>         0.064350 
     80 H          -1.729886    7.573261   -1.007647 H         1 <1>         0.061846 
     81 H          -4.835702    7.004127    1.761538 H         1 <1>         0.061846 
     82 H           4.395950    8.972963    6.463914 H         1 <1>         0.064686 
     83 H          -1.283722   13.179092    7.569926 H         1 <1>         0.065115 
     84 H           4.022583    3.872961    2.422864 H         1 <1>         0.058370 
     85 H           3.908485    5.471067    1.668526 H         1 <1>         0.058370 
     86 H          -3.114103   14.304800   -0.174992 H         1 <1>         0.058370 
     87 H          -3.679461   13.910044    1.464196 H         1 <1>         0.058370 
     88 H           4.203827   11.781974    6.272679 H         1 <1>         0.060711 
     89 H           2.492716   12.252782    6.460861 H         1 <1>         0.060711 
     90 H           1.750999    4.315338   -3.109318 H         1 <1>         0.210111 
     91 H          -8.044902   11.195854   -0.259444 H         1 <1>         0.210111 
     92 H           4.777033    7.259004   -0.045989 H         1 <1>         0.210005 
     93 H          -5.335800   13.637164    3.513986 H         1 <1>         0.210005 
     94 H           5.481888    4.227488   -2.810075 H         1 <1>         0.210004 
     95 H          -7.700177   15.465387   -0.060120 H         1 <1>         0.210004 
     96 H           3.612074    5.943157    4.618753 H         1 <1>         0.217340 
     97 H          -2.142223   14.478575    5.809762 H         1 <1>         0.217340 
     98 H           6.387181    4.097387    2.070114 H         1 <1>         0.209508 
     99 H          -3.871986   16.546466    0.322892 H         1 <1>         0.209508 
    100 H           2.440809   10.633944    8.259870 H         1 <1>         0.209847 
    101 H           0.251412   12.575983    9.172161 H         1 <1>         0.220555 
@<TRIPOS>BOND
     1    1   32 1    
     2   38    1 1    
     3    2   34 1    
     4   39    2 1    
     5   32    3 1    
     6    3   45 1    
     7   34    4 1    
     8    4   47 1    
     9   33    5 1    
    10    5   90 1    
    11   35    6 1    
    12    6   91 1    
    13   36    7 1    
    14    7   92 1    
    15   37    8 1    
    16    8   93 1    
    17   41    9 1    
    18    9   94 1    
    19   42   10 1    
    20   10   95 1    
    21   30   11 2    
    22   31   12 2    
    23   48   13 1    
    24   13   96 1    
    25   49   14 1    
    26   14   97 1    
    27   58   15 1    
    28   15   98 1    
    29   59   16 1    
    30   16   99 1    
    31   60   17 1    
    32   17  100 1    
    33   61   18 1    
    34   18  101 1    
    35   61   19 2    
    36   21   20 1    
    37   20   22 1    
    38   20   24 1    
    39   20   62 1    
    40   21   23 1    
    41   25   21 1    
    42   21   63 1    
    43   22   26 1    
    44   22   43 2    
    45   23   27 2    
    46   23   44 1    
    47   24   28 1    
    48   24   40 2    
    49   25   29 2    
    50   46   25 1    
    51   26   30 1    
    52   26   38 2    
    53   31   27 1    
    54   27   39 1    
    55   28   30 1    
    56   28   48 2    
    57   29   31 1    
    58   49   29 1    
    59   32   33 1    
    60   32   64 1    
    61   33   36 1    
    62   33   65 1    
    63   34   35 1    
    64   34   66 1    
    65   35   37 1    
    66   35   67 1    
    67   36   41 1    
    68   36   68 1    
    69   37   42 1    
    70   37   69 1    
    71   38   51 1    
    72   39   52 2    
    73   40   50 1    
    74   40   72 1    
    75   45   41 1    
    76   41   70 1    
    77   47   42 1    
    78   42   71 1    
    79   43   53 1    
    80   43   73 1    
    81   44   54 2    
    82   44   74 1    
    83   45   58 1    
    84   45   75 1    
    85   55   46 2    
    86   46   77 1    
    87   47   59 1    
    88   47   76 1    
    89   48   56 1    
    90   57   49 2    
    91   50   56 2    
    92   50   60 1    
    93   53   51 2    
    94   51   78 1    
    95   54   52 1    
    96   52   79 1    
    97   53   80 1    
    98   54   81 1    
    99   55   57 1    
   100   55   61 1    
   101   56   82 1    
   102   57   83 1    
   103   58   84 1    
   104   58   85 1    
   105   59   86 1    
   106   59   87 1    
   107   60   88 1    
   108   60   89 1    
@<TRIPOS>SUBSTRUCTURE
     1 ****       20 TEMP              0 ****  ****    0 ROOT 
@<TRIPOS>NORMAL
@<TRIPOS>FF_PBC
FORCE_FIELD_SETUP_FEATURE Force Field Setup information
v1.0  0 0.000000 0.000000 0.000000 0.000000 0.000000 0.000000 NONE 0 0 0 0 1 0 0 0 0 0 0 0 0
