@<TRIPOS>MOLECULE
MOL009520
   41    40     1     1     0
SMALL
GASTEIGER


@<TRIPOS>ATOM
      1 C          -4.256127    0.305824   -0.648239 C.3       1 <1>        -0.065034 
      2 C          -4.357904   -0.415027    0.721098 C.3       1 <1>        -0.053312 
      3 C          -3.168171   -1.372840    1.046460 C.3       1 <1>        -0.044128 
      4 C          -1.779719   -0.653832    1.059159 C.3       1 <1>        -0.050468 
      5 C          -1.003382   -0.778169   -0.285077 C.3       1 <1>        -0.052807 
      6 C           0.322919    0.031876   -0.248655 C.3       1 <1>        -0.052807 
      7 C           1.130299   -0.133869   -1.564985 C.3       1 <1>        -0.050459 
      8 C           2.383326    0.790864   -1.684279 C.3       1 <1>        -0.043888 
      9 C           3.420378    0.590060   -0.531265 C.3       1 <1>        -0.050708 
     10 C           3.258362    1.605275    0.637984 C.3       1 <1>        -0.055669 
     11 C           4.281337    1.327197    1.770944 C.3       1 <1>        -0.065268 
     12 C           3.057680    0.532858   -3.064183 C.3       1 <1>        -0.062415 
     13 C          -3.438449   -2.046399    2.424178 C.3       1 <1>        -0.062423 
     14 H          -5.187991    0.858112   -0.849451 H         1 <1>         0.022986 
     15 H          -4.105791   -0.424763   -1.457994 H         1 <1>         0.022986 
     16 H          -3.431008    1.033474   -0.651543 H         1 <1>         0.022986 
     17 H          -4.446985    0.346284    1.513680 H         1 <1>         0.026521 
     18 H          -5.291072   -1.003555    0.716279 H         1 <1>         0.026521 
     19 H          -3.151671   -2.180666    0.294258 H         1 <1>         0.029804 
     20 H          -1.913257    0.404652    1.332988 H         1 <1>         0.026785 
     21 H          -1.129900   -1.104447    1.827295 H         1 <1>         0.026785 
     22 H          -0.771614   -1.840599   -0.469134 H         1 <1>         0.026537 
     23 H          -1.613574   -0.420754   -1.125957 H         1 <1>         0.026537 
     24 H           0.086635    1.097801   -0.097244 H         1 <1>         0.026537 
     25 H           0.923803   -0.329129    0.600707 H         1 <1>         0.026537 
     26 H           1.441668   -1.187120   -1.658959 H         1 <1>         0.026785 
     27 H           0.455119    0.092293   -2.406944 H         1 <1>         0.026785 
     28 H           2.044728    1.841512   -1.687405 H         1 <1>         0.029813 
     29 H           4.442405    0.738209   -0.916608 H         1 <1>         0.026777 
     30 H           3.365082   -0.444258   -0.157040 H         1 <1>         0.026777 
     31 H           2.248004    1.568747    1.068767 H         1 <1>         0.026273 
     32 H           3.421835    2.627707    0.257374 H         1 <1>         0.026273 
     33 H           4.160565    2.063377    2.581592 H         1 <1>         0.022978 
     34 H           5.311442    1.396289    1.388018 H         1 <1>         0.022978 
     35 H           4.126022    0.319917    2.187959 H         1 <1>         0.022978 
     36 H           3.891118    1.234135   -3.228457 H         1 <1>         0.023242 
     37 H           2.338362    0.669802   -3.886834 H         1 <1>         0.023242 
     38 H           3.450480   -0.494752   -3.110284 H         1 <1>         0.023242 
     39 H          -2.666845   -2.800021    2.647957 H         1 <1>         0.023242 
     40 H          -4.415095   -2.555278    2.429044 H         1 <1>         0.023242 
     41 H          -3.433215   -1.291086    3.225295 H         1 <1>         0.023242 
@<TRIPOS>BOND
     1    1    2 1    
     2    1   14 1    
     3    1   15 1    
     4    1   16 1    
     5    2    3 1    
     6    2   17 1    
     7    2   18 1    
     8    3    4 1    
     9    3   13 1    
    10    3   19 1    
    11    4    5 1    
    12    4   20 1    
    13    4   21 1    
    14    5    6 1    
    15    5   22 1    
    16    5   23 1    
    17    6    7 1    
    18    6   24 1    
    19    6   25 1    
    20    7    8 1    
    21    7   26 1    
    22    7   27 1    
    23    8    9 1    
    24    8   12 1    
    25    8   28 1    
    26    9   10 1    
    27    9   29 1    
    28    9   30 1    
    29   10   11 1    
    30   10   31 1    
    31   10   32 1    
    32   11   33 1    
    33   11   34 1    
    34   11   35 1    
    35   12   36 1    
    36   12   37 1    
    37   12   38 1    
    38   13   39 1    
    39   13   40 1    
    40   13   41 1    
@<TRIPOS>SUBSTRUCTURE
     1 ****        1 TEMP              0 ****  ****    0 ROOT 
@<TRIPOS>NORMAL
@<TRIPOS>FF_PBC
FORCE_FIELD_SETUP_FEATURE Force Field Setup information
v1.0  0 0.000000 0.000000 0.000000 0.000000 0.000000 0.000000 NONE 0 0 0 0 1 0 0 0 0 0 0 0 0
