@<TRIPOS>MOLECULE
MOL002097
   21    21     1     1     0
SMALL
GASTEIGER


@<TRIPOS>ATOM
      1 C          -0.422329   -0.245346   -0.367506 C.3       1 <1>        -0.034873 
      2 C          -0.529495    1.165598    0.265847 C.3       1 <1>        -0.047870 
      3 C           0.312390   -1.019900    0.756633 C.3       1 <1>        -0.047870 
      4 C          -1.821196   -0.852655   -0.674007 C.3       1 <1>        -0.059811 
      5 C           0.421420   -0.214296   -1.676685 C.3       1 <1>        -0.059811 
      6 C           0.843686    1.390462    0.951035 C.3       1 <1>        -0.052556 
      7 C           1.390811   -0.030766    1.270876 C.3       1 <1>        -0.052556 
      8 H          -0.778808    1.947916   -0.469036 H         1 <1>         0.027043 
      9 H          -1.313774    1.158258    1.041391 H         1 <1>         0.027043 
     10 H           0.733955   -1.978119    0.412593 H         1 <1>         0.027043 
     11 H          -0.394443   -1.228877    1.577193 H         1 <1>         0.027043 
     12 H          -1.712432   -1.876244   -1.063759 H         1 <1>         0.023499 
     13 H          -2.448088   -0.893837    0.229754 H         1 <1>         0.023499 
     14 H          -2.342485   -0.241260   -1.426314 H         1 <1>         0.023499 
     15 H          -0.088189    0.394735   -2.438793 H         1 <1>         0.023499 
     16 H           0.539873   -1.234368   -2.072743 H         1 <1>         0.023499 
     17 H           1.424392    0.206925   -1.522535 H         1 <1>         0.023499 
     18 H           0.739681    2.010453    1.857377 H         1 <1>         0.026545 
     19 H           1.524191    1.917302    0.260975 H         1 <1>         0.026545 
     20 H           2.341625   -0.204497    0.739296 H         1 <1>         0.026545 
     21 H           1.578811   -0.171681    2.348606 H         1 <1>         0.026545 
@<TRIPOS>BOND
     1    1    2 1    
     2    1    3 1    
     3    1    4 1    
     4    1    5 1    
     5    2    6 1    
     6    2    8 1    
     7    2    9 1    
     8    3    7 1    
     9    3   10 1    
    10    3   11 1    
    11    4   12 1    
    12    4   13 1    
    13    4   14 1    
    14    5   15 1    
    15    5   16 1    
    16    5   17 1    
    17    6    7 1    
    18    6   18 1    
    19    6   19 1    
    20    7   20 1    
    21    7   21 1    
@<TRIPOS>SUBSTRUCTURE
     1 ****        1 TEMP              0 ****  ****    0 ROOT 
@<TRIPOS>NORMAL
@<TRIPOS>FF_PBC
FORCE_FIELD_SETUP_FEATURE Force Field Setup information
v1.0  0 0.000000 0.000000 0.000000 0.000000 0.000000 0.000000 NONE 0 0 0 0 1 0 0 0 0 0 0 0 0
