@<TRIPOS>MOLECULE
MOL003845
   57    59     1     1     0
SMALL
GASTEIGER


@<TRIPOS>ATOM
      1 N          -6.302997    3.148112   -3.766226 N.ar      1 <1>        -0.191926 
      2 C          -6.324199    2.230277   -2.762531 C.ar      1 <1>         0.202859 
      3 N          -5.174343    1.772826   -2.181110 N.ar      1 <1>        -0.200781 
      4 C          -3.952965    2.237261   -2.563623 C.ar      1 <1>         0.148135 
      5 C          -3.862063    3.222711   -3.598001 C.ar      1 <1>         0.125846 
      6 C          -5.129034    3.658416   -4.236207 C.ar      1 <1>         0.193603 
      7 N          -2.828235    1.774415   -1.968949 N.pl3     1 <1>        -0.321533 
      8 C          -1.507509    2.305396   -2.327254 C.3       1 <1>         0.053484 
      9 C          -1.475390    2.769378   -3.810831 C.3       1 <1>         0.039581 
     10 N          -2.580751    3.711105   -3.969243 N.am      1 <1>        -0.265929 
     11 C           1.317609    0.714133    1.343153 C.ar      1 <1>        -0.040140 
     12 C           0.897763    0.451121   -0.085927 C.ar      1 <1>         0.027204 
     13 C           2.511366    0.025242    1.882321 C.ar      1 <1>        -0.047894 
     14 C           3.207033   -0.861781    1.098446 C.ar      1 <1>         0.036825 
     15 O           5.495365   -1.337163    1.164603 O.2       1 <1>        -0.270183 
     16 C           4.408018   -1.596320    1.653439 C.2       1 <1>         0.244684 
     17 N           4.291079   -2.515212    2.640318 N.am      1 <1>        -0.299273 
     18 C           1.720504   -0.497302   -0.878178 C.ar      1 <1>        -0.040140 
     19 C           2.808284   -1.113994   -0.309132 C.ar      1 <1>        -0.047894 
     20 C           2.982285   -2.937098    3.153080 C.3       1 <1>         0.109105 
     21 C           2.191672   -3.637722    2.071035 C.2       1 <1>         0.280088 
     22 O           0.905284   -3.859169    2.351219 O.3       1 <1>        -0.329872 
     23 O           2.696475   -3.975825    1.011682 O.2       1 <1>        -0.263104 
     24 C           3.116066   -3.870892    4.389754 C.3       1 <1>        -0.016225 
     25 C           3.744865   -3.137030    5.606625 C.3       1 <1>         0.035158 
     26 C           3.824523   -4.053622    6.807979 C.2       1 <1>         0.259661 
     27 O           3.071393   -3.909090    7.755781 O.2       1 <1>        -0.265176 
     28 O           4.730754   -5.037343    6.827686 O.3       1 <1>        -0.331267 
     29 N          -0.196214    1.072103   -0.591767 N.pl3     1 <1>        -0.342012 
     30 C          -0.387762    1.267081   -2.029544 C.3       1 <1>         0.028973 
     31 C          -2.360193    5.002037   -4.317354 C.2       1 <1>         0.206955 
     32 O          -3.221502    5.864075   -4.303051 O.2       1 <1>        -0.278965 
     33 O          -5.135663    4.546602   -5.308356 O.3       1 <1>        -0.342786 
     34 N          -7.574378    1.745210   -2.326797 N.3       1 <1>        -0.270441 
     35 H          -2.907932    0.997413   -1.294679 H         1 <1>         0.147909 
     36 H          -1.327894    3.199746   -1.706392 H         1 <1>         0.052887 
     37 H          -1.638046    1.900606   -4.468460 H         1 <1>         0.048723 
     38 H          -0.494436    3.208082   -4.055912 H         1 <1>         0.048723 
     39 H           0.753604    1.398185    1.967407 H         1 <1>         0.063614 
     40 H           2.831396    0.230176    2.898696 H         1 <1>         0.062560 
     41 H           5.121464   -2.981114    2.950631 H         1 <1>         0.149804 
     42 H           1.469725   -0.716276   -1.909548 H         1 <1>         0.063614 
     43 H           3.397894   -1.807375   -0.901197 H         1 <1>         0.062560 
     44 H           2.387931   -2.069716    3.473772 H         1 <1>         0.060260 
     45 H           0.458404   -4.298504    1.635640 H         1 <1>         0.220269 
     46 H           2.117767   -4.232287    4.689690 H         1 <1>         0.029282 
     47 H           3.721876   -4.747478    4.110600 H         1 <1>         0.029282 
     48 H           4.753225   -2.764126    5.371305 H         1 <1>         0.036672 
     49 H           3.122487   -2.267034    5.871838 H         1 <1>         0.036672 
     50 H           5.291005   -5.081079    6.062394 H         1 <1>         0.220208 
     51 H          -0.870163    1.493309    0.067583 H         1 <1>         0.146130 
     52 H          -0.665170    0.315275   -2.509415 H         1 <1>         0.047979 
     53 H           0.562587    1.622572   -2.460352 H         1 <1>         0.047979 
     54 H          -1.370502    5.351933   -4.612156 H         1 <1>         0.125680 
     55 H          -6.023175    4.798017   -5.536309 H         1 <1>         0.218974 
     56 H          -7.438104    1.010114   -1.547080 H         1 <1>         0.126801 
     57 H          -8.164583    2.566126   -1.948199 H         1 <1>         0.126801 
@<TRIPOS>BOND
     1    2    1 1    
     2    6    1 2    
     3    3    2 2    
     4    2   34 1    
     5    4    3 1    
     6    4    5 2    
     7    7    4 1    
     8    5    6 1    
     9   10    5 1    
    10    6   33 1    
    11    8    7 1    
    12    7   35 1    
    13    8    9 1    
    14   30    8 1    
    15    8   36 1    
    16    9   10 1    
    17    9   37 1    
    18    9   38 1    
    19   10   31 1    
    20   12   11 2    
    21   11   13 1    
    22   11   39 1    
    23   12   18 1    
    24   29   12 1    
    25   13   14 2    
    26   13   40 1    
    27   14   16 1    
    28   19   14 1    
    29   16   15 2    
    30   16   17 1    
    31   17   20 1    
    32   17   41 1    
    33   18   19 2    
    34   18   42 1    
    35   19   43 1    
    36   20   21 1    
    37   20   24 1    
    38   20   44 1    
    39   21   22 1    
    40   21   23 2    
    41   22   45 1    
    42   24   25 1    
    43   24   46 1    
    44   24   47 1    
    45   25   26 1    
    46   25   48 1    
    47   25   49 1    
    48   26   27 2    
    49   26   28 1    
    50   28   50 1    
    51   29   30 1    
    52   29   51 1    
    53   30   52 1    
    54   30   53 1    
    55   31   32 2    
    56   31   54 1    
    57   33   55 1    
    58   34   56 1    
    59   34   57 1    
@<TRIPOS>SUBSTRUCTURE
     1 ****       11 TEMP              0 ****  ****    0 ROOT 
@<TRIPOS>NORMAL
@<TRIPOS>FF_PBC
FORCE_FIELD_SETUP_FEATURE Force Field Setup information
v1.0  0 0.000000 0.000000 0.000000 0.000000 0.000000 0.000000 NONE 0 0 0 0 1 0 0 0 0 0 0 0 0
