@<TRIPOS>MOLECULE
MOL004597
  130   136     1     1     0
SMALL
GASTEIGER


@<TRIPOS>ATOM
      1 C          -7.204647    5.493503   -6.568821 C.2       1 <1>         0.259456 
      2 C          -7.707025    5.597659   -7.981304 C.3       1 <1>         0.021445 
      3 O          -6.143916    5.992254   -6.228909 O.2       1 <1>        -0.265272 
      4 O          -8.009808    4.824554   -5.737132 O.3       1 <1>        -0.306624 
      5 C          -6.141346    3.266169   -2.762176 C.3       1 <1>         0.188464 
      6 C          -6.334106    3.726376   -4.230177 C.3       1 <1>         0.134979 
      7 C          -7.546151    4.696043   -4.369654 C.3       1 <1>         0.126812 
      8 C          -8.783509    4.148260   -3.609130 C.3       1 <1>         0.112752 
      9 C          -8.417384    3.689969   -2.174410 C.3       1 <1>         0.113032 
     10 O          -7.360795    2.717552   -2.239477 O.3       1 <1>        -0.340519 
     11 C          -9.631581    3.018224   -1.483436 C.3       1 <1>         0.073015 
     12 O         -10.762185    3.912398   -1.511185 O.3       1 <1>        -0.392366 
     13 O          -9.779143    5.190904   -3.569185 O.3       1 <1>        -0.386461 
     14 O          -5.079422    4.331341   -4.610909 O.3       1 <1>        -0.384076 
     15 O          -5.153605    2.220113   -2.782462 O.3       1 <1>        -0.340053 
     16 C          -2.902951    0.188177   -0.601462 C.3       1 <1>         0.188127 
     17 C          -3.528613    0.801223   -1.870611 C.3       1 <1>         0.134483 
     18 C          -4.598964    1.855765   -1.497038 C.3       1 <1>         0.120486 
     19 C          -5.624370    1.290573   -0.475465 C.3       1 <1>         0.109842 
     20 C          -4.901385    0.529284    0.676738 C.3       1 <1>         0.087317 
     21 O          -3.941482   -0.422407    0.181375 O.3       1 <1>        -0.343072 
     22 C          -5.883507   -0.286735    1.556703 C.3       1 <1>        -0.036060 
     23 O          -1.954320   -0.808747   -1.023714 O.3       1 <1>        -0.344807 
     24 C          -0.370319   -1.928905    2.310216 C.3       1 <1>        -0.044709 
     25 C          -0.865587   -0.922487    1.234615 C.3       1 <1>        -0.025385 
     26 C          -1.445559   -1.682471    0.012836 C.3       1 <1>         0.069510 
     27 C          -0.380208   -2.596392   -0.681068 C.3       1 <1>         0.020632 
     28 C           0.395826   -3.495289    0.386877 C.3       1 <1>        -0.025478 
     29 C           1.608221   -4.315947   -0.179284 C.3       1 <1>        -0.048527 
     30 C           3.050496   -3.773181    0.118305 C.3       1 <1>        -0.046265 
     31 C           3.371815   -3.468693    1.621053 C.3       1 <1>        -0.019291 
     32 C           4.807762   -2.769480    1.818580 C.3       1 <1>        -0.002789 
     33 C           5.299517   -2.797829    3.312187 C.3       1 <1>        -0.016610 
     34 C           6.580700   -1.972124    3.659753 C.3       1 <1>         0.064286 
     35 C           6.574708   -0.494456    3.128139 C.3       1 <1>         0.026309 
     36 C           8.009256    0.125986    3.239714 C.3       1 <1>        -0.041883 
     37 C           8.162695    1.494510    2.517821 C.3       1 <1>        -0.047178 
     38 C           7.763837    1.440840    1.012379 C.3       1 <1>        -0.034297 
     39 C           6.330657    0.830264    0.904711 C.3       1 <1>        -0.040648 
     40 C           6.184238   -0.552405    1.618197 C.3       1 <1>        -0.008787 
     41 C           4.835492   -1.262755    1.558348 C.2       1 <1>        -0.063151 
     42 C           3.720248   -0.561319    1.346961 C.2       1 <1>        -0.083644 
     43 C           2.345438   -1.129462    1.439629 C.3       1 <1>        -0.030614 
     44 C           2.182285   -2.531500    2.079609 C.3       1 <1>        -0.025734 
     45 C           0.680412   -3.018948    1.867958 C.3       1 <1>        -0.024878 
     46 C           0.388356   -4.201912    2.875123 C.3       1 <1>        -0.059008 
     47 C           7.739698    2.896972    0.447557 C.3       1 <1>        -0.059793 
     48 C           8.813093    0.648012    0.168602 C.3       1 <1>        -0.059793 
     49 C           5.860892   -3.483200    0.891456 C.3       1 <1>        -0.055242 
     50 C           3.430463   -4.832994    2.406738 C.3       1 <1>        -0.058490 
     51 C          -1.221862   -3.538020   -1.629496 C.3       1 <1>        -0.054821 
     52 C           5.561092    0.345664    3.975389 C.3       1 <1>         0.052730 
     53 O           6.021727    0.454549    5.336964 O.3       1 <1>        -0.394355 
     54 C           0.516129   -1.738944   -1.660718 C.3       1 <1>         0.052209 
     55 O           0.566657   -0.323076   -1.404462 O.3       1 <1>        -0.394374 
     56 O           6.682803   -2.056534    5.094514 O.3       1 <1>        -0.391114 
     57 O          -6.351116    2.408881    0.077385 O.3       1 <1>        -0.386569 
     58 O          -2.499460    1.417135   -2.672991 O.3       1 <1>        -0.384094 
     59 H          -6.930151    6.016024   -8.638709 H         1 <1>         0.033023 
     60 H          -8.590653    6.252027   -8.006936 H         1 <1>         0.033023 
     61 H          -7.986081    4.598998   -8.349289 H         1 <1>         0.033023 
     62 H          -5.781649    4.124287   -2.168438 H         1 <1>         0.093753 
     63 H          -6.536193    2.828027   -4.837595 H         1 <1>         0.067122 
     64 H          -7.289691    5.673161   -3.926593 H         1 <1>         0.065660 
     65 H          -9.164000    3.273504   -4.164844 H         1 <1>         0.064699 
     66 H          -8.127612    4.568609   -1.572617 H         1 <1>         0.064668 
     67 H          -9.872092    2.080834   -2.012462 H         1 <1>         0.058370 
     68 H          -9.356686    2.770715   -0.444437 H         1 <1>         0.058370 
     69 H         -11.530855    3.550916   -1.077246 H         1 <1>         0.209508 
     70 H         -10.559580    4.928687   -3.085858 H         1 <1>         0.210004 
     71 H          -5.065328    4.654539   -5.506336 H         1 <1>         0.210111 
     72 H          -2.373582    0.991844   -0.064149 H         1 <1>         0.093748 
     73 H          -4.006606   -0.023693   -2.427045 H         1 <1>         0.067105 
     74 H          -4.078112    2.714486   -1.041810 H         1 <1>         0.065136 
     75 H          -6.282993    0.599791   -1.028872 H         1 <1>         0.064594 
     76 H          -4.390983    1.264089    1.323003 H         1 <1>         0.062075 
     77 H          -5.314106   -0.847380    2.314853 H         1 <1>         0.025536 
     78 H          -6.604780    0.357649    2.079850 H         1 <1>         0.025536 
     79 H          -6.435316   -1.008841    0.935847 H         1 <1>         0.025536 
     80 H          -0.000107   -1.389328    3.196690 H         1 <1>         0.027149 
     81 H          -1.317895   -2.393261    2.629355 H         1 <1>         0.027149 
     82 H          -1.665976   -0.332738    1.713116 H         1 <1>         0.029048 
     83 H          -0.119618   -0.192124    0.915073 H         1 <1>         0.029048 
     84 H          -2.278231   -2.303796    0.384540 H         1 <1>         0.060308 
     85 H          -0.388862   -4.245324    0.571065 H         1 <1>         0.031291 
     86 H           1.533214   -5.348788    0.193050 H         1 <1>         0.026847 
     87 H           1.522104   -4.421045   -1.270490 H         1 <1>         0.026847 
     88 H           3.726658   -4.549974   -0.270235 H         1 <1>         0.027096 
     89 H           3.268290   -2.868544   -0.462371 H         1 <1>         0.027096 
     90 H           5.543380   -3.816179    3.645489 H         1 <1>         0.029875 
     91 H           4.492798   -2.443294    3.966854 H         1 <1>         0.029875 
     92 H           7.459771   -2.494892    3.248432 H         1 <1>         0.059982 
     93 H           8.284213    0.279133    4.294648 H         1 <1>         0.027247 
     94 H           8.754046   -0.566874    2.822024 H         1 <1>         0.027247 
     95 H           9.208406    1.833397    2.603526 H         1 <1>         0.027063 
     96 H           7.545606    2.241298    3.040195 H         1 <1>         0.027063 
     97 H           5.653925    1.576419    1.337632 H         1 <1>         0.027632 
     98 H           6.056172    0.717729   -0.157149 H         1 <1>         0.027632 
     99 H           6.916707   -1.157931    1.082149 H         1 <1>         0.035286 
    100 H           3.729894    0.500535    1.111711 H         1 <1>         0.057198 
    101 H           1.810021   -0.389727    2.054022 H         1 <1>         0.031042 
    102 H           1.954166   -1.114425    0.423856 H         1 <1>         0.031042 
    103 H           2.323426   -2.367237    3.158433 H         1 <1>         0.031460 
    104 H          -0.678488   -4.464624    2.947183 H         1 <1>         0.023525 
    105 H           0.719571   -3.951155    3.894374 H         1 <1>         0.023525 
    106 H           0.836430   -5.149375    2.585055 H         1 <1>         0.023525 
    107 H           8.733140    3.364145    0.532080 H         1 <1>         0.023499 
    108 H           7.024960    3.532351    0.992817 H         1 <1>         0.023499 
    109 H           7.448228    2.894244   -0.614097 H         1 <1>         0.023499 
    110 H           8.977196   -0.382246    0.505668 H         1 <1>         0.023499 
    111 H           9.789624    1.154246    0.208012 H         1 <1>         0.023499 
    112 H           8.495024    0.607127   -0.884323 H         1 <1>         0.023499 
    113 H           6.901702   -3.357482    1.208471 H         1 <1>         0.023830 
    114 H           5.775264   -3.085883   -0.131675 H         1 <1>         0.023830 
    115 H           5.748923   -4.570976    0.825092 H         1 <1>         0.023830 
    116 H           2.834338   -5.636807    1.972590 H         1 <1>         0.023542 
    117 H           3.133479   -4.689783    3.455929 H         1 <1>         0.023542 
    118 H           4.418171   -5.303515    2.425096 H         1 <1>         0.023542 
    119 H          -0.576212   -4.192907   -2.231469 H         1 <1>         0.023667 
    120 H          -1.836198   -2.952372   -2.332156 H         1 <1>         0.023667 
    121 H          -1.926871   -4.184726   -1.083558 H         1 <1>         0.023667 
    122 H           4.562388   -0.115738    3.963445 H         1 <1>         0.056353 
    123 H           5.443264    1.366157    3.588166 H         1 <1>         0.056353 
    124 H           5.426244    0.934326    5.905504 H         1 <1>         0.209421 
    125 H           1.547264   -2.094732   -1.691318 H         1 <1>         0.056334 
    126 H           0.174659   -1.812445   -2.708224 H         1 <1>         0.056334 
    127 H          -0.288820    0.088160   -1.516708 H         1 <1>         0.209420 
    128 H           7.413682   -1.573723    5.463768 H         1 <1>         0.209802 
    129 H          -7.085585    2.156309    0.624818 H         1 <1>         0.210002 
    130 H          -2.861784    1.807841   -3.463921 H         1 <1>         0.210111 
@<TRIPOS>BOND
     1    1    2 1    
     2    1    3 2    
     3    4    1 1    
     4    2   59 1    
     5    2   60 1    
     6    2   61 1    
     7    7    4 1    
     8    5    6 1    
     9    5   10 1    
    10   15    5 1    
    11    5   62 1    
    12    6    7 1    
    13    6   14 1    
    14    6   63 1    
    15    7    8 1    
    16    7   64 1    
    17    9    8 1    
    18    8   13 1    
    19    8   65 1    
    20   10    9 1    
    21    9   11 1    
    22    9   66 1    
    23   11   12 1    
    24   11   67 1    
    25   11   68 1    
    26   12   69 1    
    27   13   70 1    
    28   14   71 1    
    29   18   15 1    
    30   16   17 1    
    31   16   21 1    
    32   23   16 1    
    33   16   72 1    
    34   17   18 1    
    35   17   58 1    
    36   17   73 1    
    37   18   19 1    
    38   18   74 1    
    39   20   19 1    
    40   19   57 1    
    41   19   75 1    
    42   21   20 1    
    43   20   22 1    
    44   20   76 1    
    45   22   77 1    
    46   22   78 1    
    47   22   79 1    
    48   26   23 1    
    49   25   24 1    
    50   24   45 1    
    51   24   80 1    
    52   24   81 1    
    53   25   26 1    
    54   25   82 1    
    55   25   83 1    
    56   26   27 1    
    57   26   84 1    
    58   27   28 1    
    59   27   51 1    
    60   27   54 1    
    61   28   29 1    
    62   28   45 1    
    63   28   85 1    
    64   29   30 1    
    65   29   86 1    
    66   29   87 1    
    67   30   31 1    
    68   30   88 1    
    69   30   89 1    
    70   31   32 1    
    71   31   44 1    
    72   31   50 1    
    73   32   33 1    
    74   32   41 1    
    75   32   49 1    
    76   33   34 1    
    77   33   90 1    
    78   33   91 1    
    79   34   35 1    
    80   34   56 1    
    81   34   92 1    
    82   35   36 1    
    83   35   40 1    
    84   35   52 1    
    85   36   37 1    
    86   36   93 1    
    87   36   94 1    
    88   37   38 1    
    89   37   95 1    
    90   37   96 1    
    91   38   39 1    
    92   38   47 1    
    93   38   48 1    
    94   39   40 1    
    95   39   97 1    
    96   39   98 1    
    97   40   41 1    
    98   40   99 1    
    99   41   42 2    
   100   42   43 1    
   101   42  100 1    
   102   43   44 1    
   103   43  101 1    
   104   43  102 1    
   105   44   45 1    
   106   44  103 1    
   107   45   46 1    
   108   46  104 1    
   109   46  105 1    
   110   46  106 1    
   111   47  107 1    
   112   47  108 1    
   113   47  109 1    
   114   48  110 1    
   115   48  111 1    
   116   48  112 1    
   117   49  113 1    
   118   49  114 1    
   119   49  115 1    
   120   50  116 1    
   121   50  117 1    
   122   50  118 1    
   123   51  119 1    
   124   51  120 1    
   125   51  121 1    
   126   52   53 1    
   127   52  122 1    
   128   52  123 1    
   129   53  124 1    
   130   54   55 1    
   131   54  125 1    
   132   54  126 1    
   133   55  127 1    
   134   56  128 1    
   135   57  129 1    
   136   58  130 1    
@<TRIPOS>SUBSTRUCTURE
     1 ****       24 TEMP              0 ****  ****    0 ROOT 
@<TRIPOS>NORMAL
@<TRIPOS>FF_PBC
FORCE_FIELD_SETUP_FEATURE Force Field Setup information
v1.0  0 0.000000 0.000000 0.000000 0.000000 0.000000 0.000000 NONE 0 0 0 0 1 0 0 0 0 0 0 0 0
