@<TRIPOS>MOLECULE
MOL004821
   59    61     1     1     0
SMALL
GASTEIGER


@<TRIPOS>ATOM
      1 C          -4.213056    1.207000   -1.096991 C.ar      1 <1>         0.078507 
      2 C          -3.641476    2.580324   -1.051086 C.ar      1 <1>        -0.031243 
      3 C          -2.267721    2.782586   -1.222579 C.ar      1 <1>        -0.053660 
      4 C          -1.368203    1.622321   -1.402524 C.ar      1 <1>        -0.016313 
      5 C          -1.910465    0.324439   -1.460662 C.ar      1 <1>         0.085276 
      6 C          -3.370969    0.110206   -1.342710 C.ar      1 <1>         0.016236 
      7 C           0.138398    1.863208   -1.497373 C.3       1 <1>        -0.016197 
      8 C           0.908051    0.537892   -1.723775 C.3       1 <1>         0.014543 
      9 C           0.219140   -0.642345   -1.001098 C.3       1 <1>         0.061410 
     10 O          -1.076486   -0.787250   -1.601412 O.3       1 <1>        -0.343450 
     11 C           2.382126    0.695850   -1.316218 C.ar      1 <1>        -0.011644 
     12 C           3.429889    0.713731   -2.364078 C.ar      1 <1>        -0.053335 
     13 C           4.772746    0.841936   -2.008213 C.ar      1 <1>        -0.031234 
     14 C           5.158853    0.961864   -0.586423 C.ar      1 <1>         0.078500 
     15 C           4.176645    0.985169    0.416322 C.ar      1 <1>         0.015986 
     16 C           2.748304    0.832594    0.033593 C.ar      1 <1>         0.081990 
     17 O          -5.579278    1.004539   -0.894480 O.3       1 <1>        -0.359468 
     18 C          -3.856299   -1.338995   -1.485182 C.3       1 <1>        -0.004345 
     19 C          -5.270067   -1.484962   -1.989209 C.2       1 <1>        -0.080815 
     20 C          -6.063935   -2.525423   -1.683687 C.2       1 <1>        -0.079306 
     21 O           1.768284    0.817791    1.023486 O.3       1 <1>        -0.359186 
     22 C          -5.579177   -3.721791   -0.890189 C.3       1 <1>        -0.044040 
     23 C          -7.514665   -2.566481   -2.106491 C.3       1 <1>        -0.044040 
     24 C           4.510235    1.169083    1.899329 C.3       1 <1>        -0.004353 
     25 C           4.243777   -0.070384    2.723002 C.2       1 <1>        -0.080815 
     26 C           4.509556   -0.143224    4.037784 C.2       1 <1>        -0.079306 
     27 O           6.512782    1.063406   -0.266046 O.3       1 <1>        -0.359468 
     28 C           5.070271    1.028498    4.817682 C.3       1 <1>        -0.044040 
     29 C           4.279464   -1.415569    4.828374 C.3       1 <1>        -0.044040 
     30 H          -4.289047    3.434071   -0.891883 H         1 <1>         0.064339 
     31 H          -1.862807    3.790582   -1.219426 H         1 <1>         0.062188 
     32 H           0.368710    2.571714   -2.309316 H         1 <1>         0.032055 
     33 H           0.431366    2.330975   -0.545066 H         1 <1>         0.032055 
     34 H           0.848211    0.285558   -2.798332 H         1 <1>         0.037526 
     35 H           0.782791   -1.580370   -1.160612 H         1 <1>         0.057101 
     36 H           0.079797   -0.495871    0.080131 H         1 <1>         0.057101 
     37 H           3.155763    0.633618   -3.411418 H         1 <1>         0.062197 
     38 H           5.539096    0.855359   -2.777156 H         1 <1>         0.064339 
     39 H          -6.068055    1.802655   -0.735144 H         1 <1>         0.217326 
     40 H          -3.215881   -1.871844   -2.203609 H         1 <1>         0.035721 
     41 H          -3.727675   -1.791447   -0.493426 H         1 <1>         0.035721 
     42 H          -5.651664   -0.696997   -2.643069 H         1 <1>         0.057473 
     43 H           1.722987    1.635719    1.510716 H         1 <1>         0.217338 
     44 H          -6.162387   -4.619752   -1.144063 H         1 <1>         0.027427 
     45 H          -4.524106   -3.956087   -1.101708 H         1 <1>         0.027427 
     46 H          -5.698328   -3.519198    0.184927 H         1 <1>         0.027427 
     47 H          -7.697724   -3.443529   -2.742753 H         1 <1>         0.027427 
     48 H          -8.130051   -2.647558   -1.197564 H         1 <1>         0.027427 
     49 H          -7.829338   -1.664259   -2.652418 H         1 <1>         0.027427 
     50 H           5.556634    1.473337    2.038006 H         1 <1>         0.035721 
     51 H           3.885784    1.999963    2.254457 H         1 <1>         0.035721 
     52 H           3.818397   -0.939506    2.219517 H         1 <1>         0.057473 
     53 H           6.780524    0.364369    0.321276 H         1 <1>         0.217326 
     54 H           4.751350    0.988077    5.869948 H         1 <1>         0.027427 
     55 H           6.169708    0.976959    4.775831 H         1 <1>         0.027427 
     56 H           4.747876    2.001479    4.423725 H         1 <1>         0.027427 
     57 H           4.930542   -1.455047    5.716376 H         1 <1>         0.027427 
     58 H           3.232763   -1.459650    5.165012 H         1 <1>         0.027427 
     59 H           4.494359   -2.309559    4.222076 H         1 <1>         0.027427 
@<TRIPOS>BOND
     1    1    2 1    
     2    1    6 2    
     3    1   17 1    
     4    2    3 2    
     5    2   30 1    
     6    3    4 1    
     7    3   31 1    
     8    4    5 2    
     9    4    7 1    
    10    5    6 1    
    11    5   10 1    
    12    6   18 1    
    13    7    8 1    
    14    7   32 1    
    15    7   33 1    
    16    8    9 1    
    17    8   11 1    
    18    8   34 1    
    19    9   10 1    
    20    9   35 1    
    21    9   36 1    
    22   11   12 1    
    23   11   16 2    
    24   12   13 2    
    25   12   37 1    
    26   13   14 1    
    27   13   38 1    
    28   14   15 2    
    29   14   27 1    
    30   15   16 1    
    31   15   24 1    
    32   16   21 1    
    33   17   39 1    
    34   18   19 1    
    35   18   40 1    
    36   18   41 1    
    37   19   20 2    
    38   19   42 1    
    39   20   22 1    
    40   20   23 1    
    41   21   43 1    
    42   22   44 1    
    43   22   45 1    
    44   22   46 1    
    45   23   47 1    
    46   23   48 1    
    47   23   49 1    
    48   24   25 1    
    49   24   50 1    
    50   24   51 1    
    51   25   26 2    
    52   25   52 1    
    53   26   28 1    
    54   26   29 1    
    55   27   53 1    
    56   28   54 1    
    57   28   55 1    
    58   28   56 1    
    59   29   57 1    
    60   29   58 1    
    61   29   59 1    
@<TRIPOS>SUBSTRUCTURE
     1 ****        1 TEMP              0 ****  ****    0 ROOT 
@<TRIPOS>NORMAL
@<TRIPOS>FF_PBC
FORCE_FIELD_SETUP_FEATURE Force Field Setup information
v1.0  0 0.000000 0.000000 0.000000 0.000000 0.000000 0.000000 NONE 0 0 0 0 1 0 0 0 0 0 0 0 0
