@<TRIPOS>MOLECULE
MOL008058
   39    39     1     1     0
SMALL
GASTEIGER


@<TRIPOS>ATOM
      1 C           0.168544    1.380870   -1.805233 C.2       1 <1>        -0.084435 
      2 C          -1.129966    1.056740   -1.650314 C.2       1 <1>        -0.072803 
      3 C          -1.696910   -0.172851   -2.336705 C.3       1 <1>        -0.013778 
      4 C          -2.271921   -1.260702   -1.427851 C.2       1 <1>        -0.083431 
      5 C          -1.851825   -1.877506   -0.298517 C.2       1 <1>        -0.081679 
      6 C          -0.603208   -1.766512    0.586435 C.3       1 <1>        -0.013453 
      7 C           0.691100   -1.381914   -0.198225 C.3       1 <1>        -0.025904 
      8 C           1.859261   -0.666432    0.463158 C.2       1 <1>        -0.084219 
      9 C           2.102980    0.647126    0.674967 C.2       1 <1>        -0.076214 
     10 C           1.166886    1.831189    0.430974 C.3       1 <1>        -0.028562 
     11 C           0.935222    2.396899   -1.002815 C.3       1 <1>        -0.030830 
     12 C           3.448950    1.046746    1.255944 C.3       1 <1>        -0.043778 
     13 C          -0.320003   -3.151566    1.256118 C.3       1 <1>        -0.056067 
     14 C          -0.963986   -0.787492    1.738825 C.3       1 <1>        -0.056067 
     15 C          -2.124670    1.836832   -0.815136 C.3       1 <1>        -0.043495 
     16 H           0.779391    0.845037   -2.536743 H         1 <1>         0.057173 
     17 H          -0.981433   -0.661495   -3.016276 H         1 <1>         0.035221 
     18 H          -2.502736    0.219255   -2.978737 H         1 <1>         0.035221 
     19 H          -3.240446   -1.614217   -1.795392 H         1 <1>         0.057228 
     20 H          -2.558363   -2.616333    0.087367 H         1 <1>         0.057453 
     21 H           0.405725   -0.811293   -1.050578 H         1 <1>         0.031557 
     22 H           1.093980   -2.292212   -0.671722 H         1 <1>         0.031557 
     23 H           2.623965   -1.371056    0.794191 H         1 <1>         0.057181 
     24 H           0.206966    1.584384    0.879437 H         1 <1>         0.031285 
     25 H           1.533973    2.683535    1.025883 H         1 <1>         0.031285 
     26 H           0.372743    3.343926   -0.973547 H         1 <1>         0.031044 
     27 H           1.913622    2.608168   -1.465132 H         1 <1>         0.031044 
     28 H           4.178569    0.225718    1.325058 H         1 <1>         0.027436 
     29 H           3.896176    1.827777    0.622721 H         1 <1>         0.027436 
     30 H           3.303465    1.453899    2.268098 H         1 <1>         0.027436 
     31 H           0.583781   -3.091232    1.882633 H         1 <1>         0.023804 
     32 H          -1.152527   -3.480911    1.897306 H         1 <1>         0.023804 
     33 H          -0.165291   -3.931857    0.494616 H         1 <1>         0.023804 
     34 H          -0.080762   -0.549075    2.349333 H         1 <1>         0.023804 
     35 H          -1.728012   -1.220719    2.401698 H         1 <1>         0.023804 
     36 H          -1.398181    0.133720    1.344343 H         1 <1>         0.023804 
     37 H          -1.681294    2.553881   -0.113483 H         1 <1>         0.027445 
     38 H          -2.755767    2.407706   -1.511465 H         1 <1>         0.027445 
     39 H          -2.783747    1.162844   -0.250313 H         1 <1>         0.027445 
@<TRIPOS>BOND
     1    1    2 2    
     2    1   11 1    
     3    1   16 1    
     4    2    3 1    
     5    2   15 1    
     6    3    4 1    
     7    3   17 1    
     8    3   18 1    
     9    4    5 2    
    10    4   19 1    
    11    5    6 1    
    12    5   20 1    
    13    6    7 1    
    14    6   13 1    
    15    6   14 1    
    16    7    8 1    
    17    7   21 1    
    18    7   22 1    
    19    8    9 2    
    20    8   23 1    
    21    9   10 1    
    22    9   12 1    
    23   10   11 1    
    24   10   24 1    
    25   10   25 1    
    26   11   26 1    
    27   11   27 1    
    28   12   28 1    
    29   12   29 1    
    30   12   30 1    
    31   13   31 1    
    32   13   32 1    
    33   13   33 1    
    34   14   34 1    
    35   14   35 1    
    36   14   36 1    
    37   15   37 1    
    38   15   38 1    
    39   15   39 1    
@<TRIPOS>SUBSTRUCTURE
     1 ****        1 TEMP              0 ****  ****    0 ROOT 
@<TRIPOS>NORMAL
@<TRIPOS>FF_PBC
FORCE_FIELD_SETUP_FEATURE Force Field Setup information
v1.0  0 0.000000 0.000000 0.000000 0.000000 0.000000 0.000000 NONE 0 0 0 0 1 0 0 0 0 0 0 0 0
