@<TRIPOS>MOLECULE
MOL000870
  110   109     1     1     0
SMALL
GASTEIGER


@<TRIPOS>ATOM
      1 C         -22.450397   -0.456216    0.000113 C.3       1 <1>        -0.065276 
      2 C         -21.175094    0.426486   -0.000115 C.3       1 <1>        -0.055911 
      3 C         -19.887904   -0.442400    0.000111 C.3       1 <1>        -0.053306 
      4 C         -18.608874    0.439084   -0.000117 C.3       1 <1>        -0.053065 
      5 C         -17.322943   -0.432317    0.000111 C.3       1 <1>        -0.053057 
      6 C         -16.041540    0.445742   -0.000115 C.3       1 <1>        -0.053057 
      7 C         -14.757952   -0.429200    0.000114 C.3       1 <1>        -0.053057 
      8 C         -13.474353    0.445646   -0.000114 C.3       1 <1>        -0.053057 
      9 C         -12.191984   -0.431247    0.000114 C.3       1 <1>        -0.053057 
     10 C         -10.907447    0.442252   -0.000115 C.3       1 <1>        -0.053057 
     11 C          -9.625532   -0.435370    0.000114 C.3       1 <1>        -0.053057 
     12 C          -8.340918    0.438158   -0.000114 C.3       1 <1>        -0.053057 
     13 C          -7.058459   -0.438570    0.000114 C.3       1 <1>        -0.053057 
     14 C          -5.774465    0.435937   -0.000114 C.3       1 <1>        -0.053057 
     15 C          -4.491160   -0.439585    0.000115 C.3       1 <1>        -0.053057 
     16 C          -3.207987    0.436181   -0.000114 C.3       1 <1>        -0.053057 
     17 C          -1.924386   -0.438739    0.000115 C.3       1 <1>        -0.053057 
     18 C          -0.641722    0.437549   -0.000114 C.3       1 <1>        -0.053057 
     19 C           0.641722   -0.437549    0.000114 C.3       1 <1>        -0.053057 
     20 C           1.924386    0.438739   -0.000115 C.3       1 <1>        -0.053057 
     21 C           3.207987   -0.436181    0.000114 C.3       1 <1>        -0.053057 
     22 C           4.491160    0.439585   -0.000115 C.3       1 <1>        -0.053057 
     23 C           5.774465   -0.435937    0.000114 C.3       1 <1>        -0.053057 
     24 C           7.058459    0.438570   -0.000114 C.3       1 <1>        -0.053057 
     25 C           8.340918   -0.438158    0.000114 C.3       1 <1>        -0.053057 
     26 C           9.625532    0.435370   -0.000114 C.3       1 <1>        -0.053057 
     27 C          10.907447   -0.442252    0.000115 C.3       1 <1>        -0.053057 
     28 C          12.191984    0.431247   -0.000114 C.3       1 <1>        -0.053057 
     29 C          13.474353   -0.445646    0.000114 C.3       1 <1>        -0.053057 
     30 C          14.757952    0.429200   -0.000114 C.3       1 <1>        -0.053057 
     31 C          16.041540   -0.445742    0.000115 C.3       1 <1>        -0.053057 
     32 C          17.322943    0.432317   -0.000111 C.3       1 <1>        -0.053057 
     33 C          18.608874   -0.439084    0.000117 C.3       1 <1>        -0.053065 
     34 C          19.887904    0.442400   -0.000111 C.3       1 <1>        -0.053306 
     35 C          21.175094   -0.426486    0.000115 C.3       1 <1>        -0.055911 
     36 C          22.450397    0.456216   -0.000113 C.3       1 <1>        -0.065276 
     37 H         -23.350802    0.178334   -0.000042 H         1 <1>         0.022978 
     38 H         -22.474007   -1.097125    0.895270 H         1 <1>         0.022978 
     39 H         -22.474000   -1.097603   -0.894705 H         1 <1>         0.022978 
     40 H         -21.184298    1.072679   -0.893806 H         1 <1>         0.026265 
     41 H         -21.184297    1.073149    0.893237 H         1 <1>         0.026265 
     42 H         -19.885816   -1.088229    0.893625 H         1 <1>         0.026520 
     43 H         -19.885815   -1.088690   -0.893070 H         1 <1>         0.026520 
     44 H         -18.611602    1.084939   -0.893620 H         1 <1>         0.026528 
     45 H         -18.611603    1.085397    0.893052 H         1 <1>         0.026528 
     46 H         -17.321302   -1.078224    0.893589 H         1 <1>         0.026528 
     47 H         -17.321300   -1.078683   -0.893036 H         1 <1>         0.026528 
     48 H         -16.042515    1.091587   -0.893624 H         1 <1>         0.026528 
     49 H         -16.042517    1.092045    0.893059 H         1 <1>         0.026528 
     50 H         -14.758040   -1.075071    0.893558 H         1 <1>         0.026528 
     51 H         -14.758039   -1.075531   -0.892999 H         1 <1>         0.026528 
     52 H         -13.473982    1.091531   -0.893627 H         1 <1>         0.026528 
     53 H         -13.473982    1.091989    0.893064 H         1 <1>         0.026528 
     54 H         -12.192764   -1.077125    0.893576 H         1 <1>         0.026528 
     55 H         -12.192764   -1.077584   -0.893017 H         1 <1>         0.026528 
     56 H         -10.906470    1.088128   -0.893586 H         1 <1>         0.026528 
     57 H         -10.906469    1.088587    0.893023 H         1 <1>         0.026528 
     58 H          -9.626586   -1.081341    0.893602 H         1 <1>         0.026528 
     59 H          -9.626586   -1.081800   -0.893042 H         1 <1>         0.026528 
     60 H          -8.340333    1.084019   -0.893571 H         1 <1>         0.026528 
     61 H          -8.340333    1.084479    0.893009 H         1 <1>         0.026528 
     62 H          -7.059026   -1.084450    0.893582 H         1 <1>         0.026528 
     63 H          -7.059026   -1.084909   -0.893019 H         1 <1>         0.026528 
     64 H          -5.774117    1.081822   -0.893579 H         1 <1>         0.026528 
     65 H          -5.774118    1.082282    0.893018 H         1 <1>         0.026528 
     66 H          -4.490980   -1.085483    0.893601 H         1 <1>         0.026528 
     67 H          -4.490980   -1.085941   -0.893038 H         1 <1>         0.026528 
     68 H          -3.208041    1.082080   -0.893596 H         1 <1>         0.026528 
     69 H          -3.208041    1.082539    0.893035 H         1 <1>         0.026528 
     70 H          -1.923938   -1.084573    0.893594 H         1 <1>         0.026528 
     71 H          -1.923938   -1.085031   -0.893032 H         1 <1>         0.026528 
     72 H          -0.641914    1.083446   -0.893588 H         1 <1>         0.026528 
     73 H          -0.641914    1.083906    0.893026 H         1 <1>         0.026528 
     74 H           0.641914   -1.083446    0.893588 H         1 <1>         0.026528 
     75 H           0.641914   -1.083906   -0.893026 H         1 <1>         0.026528 
     76 H           1.923938    1.084573   -0.893594 H         1 <1>         0.026528 
     77 H           1.923938    1.085031    0.893032 H         1 <1>         0.026528 
     78 H           3.208041   -1.082080    0.893596 H         1 <1>         0.026528 
     79 H           3.208041   -1.082539   -0.893035 H         1 <1>         0.026528 
     80 H           4.490980    1.085483   -0.893601 H         1 <1>         0.026528 
     81 H           4.490980    1.085941    0.893038 H         1 <1>         0.026528 
     82 H           5.774117   -1.081822    0.893579 H         1 <1>         0.026528 
     83 H           5.774118   -1.082282   -0.893018 H         1 <1>         0.026528 
     84 H           7.059026    1.084450   -0.893582 H         1 <1>         0.026528 
     85 H           7.059026    1.084909    0.893019 H         1 <1>         0.026528 
     86 H           8.340333   -1.084019    0.893571 H         1 <1>         0.026528 
     87 H           8.340333   -1.084479   -0.893009 H         1 <1>         0.026528 
     88 H           9.626586    1.081341   -0.893602 H         1 <1>         0.026528 
     89 H           9.626586    1.081800    0.893042 H         1 <1>         0.026528 
     90 H          10.906470   -1.088128    0.893586 H         1 <1>         0.026528 
     91 H          10.906469   -1.088587   -0.893023 H         1 <1>         0.026528 
     92 H          12.192764    1.077125   -0.893576 H         1 <1>         0.026528 
     93 H          12.192764    1.077584    0.893017 H         1 <1>         0.026528 
     94 H          13.473982   -1.091531    0.893627 H         1 <1>         0.026528 
     95 H          13.473982   -1.091989   -0.893064 H         1 <1>         0.026528 
     96 H          14.758040    1.075071   -0.893558 H         1 <1>         0.026528 
     97 H          14.758039    1.075531    0.892999 H         1 <1>         0.026528 
     98 H          16.042515   -1.091587    0.893624 H         1 <1>         0.026528 
     99 H          16.042517   -1.092045   -0.893059 H         1 <1>         0.026528 
    100 H          17.321302    1.078224   -0.893589 H         1 <1>         0.026528 
    101 H          17.321300    1.078683    0.893036 H         1 <1>         0.026528 
    102 H          18.611602   -1.084939    0.893620 H         1 <1>         0.026528 
    103 H          18.611603   -1.085397   -0.893052 H         1 <1>         0.026528 
    104 H          19.885816    1.088229   -0.893625 H         1 <1>         0.026520 
    105 H          19.885815    1.088690    0.893070 H         1 <1>         0.026520 
    106 H          21.184298   -1.072679    0.893806 H         1 <1>         0.026265 
    107 H          21.184297   -1.073149   -0.893237 H         1 <1>         0.026265 
    108 H          23.350802   -0.178334    0.000042 H         1 <1>         0.022978 
    109 H          22.474007    1.097125   -0.895270 H         1 <1>         0.022978 
    110 H          22.474000    1.097603    0.894705 H         1 <1>         0.022978 
@<TRIPOS>BOND
     1    1    2 1    
     2    1   37 1    
     3    1   38 1    
     4    1   39 1    
     5    2    3 1    
     6    2   40 1    
     7    2   41 1    
     8    3    4 1    
     9    3   42 1    
    10    3   43 1    
    11    4    5 1    
    12    4   44 1    
    13    4   45 1    
    14    5    6 1    
    15    5   46 1    
    16    5   47 1    
    17    6    7 1    
    18    6   48 1    
    19    6   49 1    
    20    7    8 1    
    21    7   50 1    
    22    7   51 1    
    23    8    9 1    
    24    8   52 1    
    25    8   53 1    
    26    9   10 1    
    27    9   54 1    
    28    9   55 1    
    29   10   11 1    
    30   10   56 1    
    31   10   57 1    
    32   11   12 1    
    33   11   58 1    
    34   11   59 1    
    35   12   13 1    
    36   12   60 1    
    37   12   61 1    
    38   13   14 1    
    39   13   62 1    
    40   13   63 1    
    41   14   15 1    
    42   14   64 1    
    43   14   65 1    
    44   15   16 1    
    45   15   66 1    
    46   15   67 1    
    47   16   17 1    
    48   16   68 1    
    49   16   69 1    
    50   17   18 1    
    51   17   70 1    
    52   17   71 1    
    53   18   19 1    
    54   18   72 1    
    55   18   73 1    
    56   19   20 1    
    57   19   74 1    
    58   19   75 1    
    59   20   21 1    
    60   20   76 1    
    61   20   77 1    
    62   21   22 1    
    63   21   78 1    
    64   21   79 1    
    65   22   23 1    
    66   22   80 1    
    67   22   81 1    
    68   23   24 1    
    69   23   82 1    
    70   23   83 1    
    71   24   25 1    
    72   24   84 1    
    73   24   85 1    
    74   25   26 1    
    75   25   86 1    
    76   25   87 1    
    77   26   27 1    
    78   26   88 1    
    79   26   89 1    
    80   27   28 1    
    81   27   90 1    
    82   27   91 1    
    83   28   29 1    
    84   28   92 1    
    85   28   93 1    
    86   29   30 1    
    87   29   94 1    
    88   29   95 1    
    89   30   31 1    
    90   30   96 1    
    91   30   97 1    
    92   31   32 1    
    93   31   98 1    
    94   31   99 1    
    95   32   33 1    
    96   32  100 1    
    97   32  101 1    
    98   33   34 1    
    99   33  102 1    
   100   33  103 1    
   101   34   35 1    
   102   34  104 1    
   103   34  105 1    
   104   35   36 1    
   105   35  106 1    
   106   35  107 1    
   107   36  108 1    
   108   36  109 1    
   109   36  110 1    
@<TRIPOS>SUBSTRUCTURE
     1 ****        1 TEMP              0 ****  ****    0 ROOT 
@<TRIPOS>NORMAL
@<TRIPOS>FF_PBC
FORCE_FIELD_SETUP_FEATURE Force Field Setup information
v1.0  0 0.000000 0.000000 0.000000 0.000000 0.000000 0.000000 NONE 0 0 0 0 1 0 0 0 0 0 0 0 0
