@<TRIPOS>MOLECULE
MOL001121
   27    28     1     1     0
SMALL
GASTEIGER


@<TRIPOS>ATOM
      1 C          -0.591834    0.181830    0.670864 C.3       1 <1>        -0.012076 
      2 C          -0.457733   -1.229835    1.300585 C.3       1 <1>        -0.042311 
      3 C           0.102479   -1.657451   -0.083101 C.3       1 <1>        -0.031349 
      4 C           1.627482   -1.344389   -0.050433 C.3       1 <1>        -0.031064 
      5 C           1.845611    0.060939    0.478432 C.2       1 <1>        -0.082053 
      6 C           0.779626    0.806653    0.814624 C.2       1 <1>        -0.044790 
      7 C          -0.701752   -0.488931   -0.726007 C.3       1 <1>        -0.025183 
      8 C          -2.165814   -0.888544   -1.090835 C.3       1 <1>        -0.059006 
      9 C          -0.074243    0.265581   -1.939665 C.3       1 <1>        -0.059006 
     10 C           0.847572    2.222432    1.329556 C.3       1 <1>         0.065574 
     11 O          -0.018641    3.039225    0.520723 O.3       1 <1>        -0.390727 
     12 H          -1.447749    0.790451    1.003638 H         1 <1>         0.035170 
     13 H          -1.420688   -1.697786    1.555809 H         1 <1>         0.027407 
     14 H           0.225735   -1.316502    2.162004 H         1 <1>         0.027407 
     15 H          -0.153291   -2.674520   -0.421110 H         1 <1>         0.030925 
     16 H           2.133842   -2.063273    0.612335 H         1 <1>         0.031026 
     17 H           2.054823   -1.447917   -1.059328 H         1 <1>         0.031026 
     18 H           2.860805    0.446564    0.570417 H         1 <1>         0.057251 
     19 H          -2.153791   -1.553434   -1.968623 H         1 <1>         0.023525 
     20 H          -2.708747   -1.406819   -0.288823 H         1 <1>         0.023525 
     21 H          -2.739903    0.015358   -1.348163 H         1 <1>         0.023525 
     22 H          -0.693475    1.144504   -2.173794 H         1 <1>         0.023525 
     23 H           0.951144    0.629501   -1.798919 H         1 <1>         0.023525 
     24 H          -0.072630   -0.401300   -2.815128 H         1 <1>         0.023525 
     25 H           1.880444    2.606656    1.287008 H         1 <1>         0.060397 
     26 H           0.513375    2.222495    2.380416 H         1 <1>         0.060397 
     27 H          -0.043454    3.948879    0.802135 H         1 <1>         0.209834 
@<TRIPOS>BOND
     1    1    2 1    
     2    1    6 1    
     3    1    7 1    
     4    1   12 1    
     5    2    3 1    
     6    2   13 1    
     7    2   14 1    
     8    3    4 1    
     9    3    7 1    
    10    3   15 1    
    11    4    5 1    
    12    4   16 1    
    13    4   17 1    
    14    5    6 2    
    15    5   18 1    
    16    6   10 1    
    17    7    8 1    
    18    7    9 1    
    19    8   19 1    
    20    8   20 1    
    21    8   21 1    
    22    9   22 1    
    23    9   23 1    
    24    9   24 1    
    25   10   11 1    
    26   10   25 1    
    27   10   26 1    
    28   11   27 1    
@<TRIPOS>SUBSTRUCTURE
     1 ****        1 TEMP              0 ****  ****    0 ROOT 
@<TRIPOS>NORMAL
@<TRIPOS>FF_PBC
FORCE_FIELD_SETUP_FEATURE Force Field Setup information
v1.0  0 0.000000 0.000000 0.000000 0.000000 0.000000 0.000000 NONE 0 0 0 0 1 0 0 0 0 0 0 0 0
