@<TRIPOS>MOLECULE
MOL004862
   59    61     1     1     0
SMALL
GASTEIGER


@<TRIPOS>ATOM
      1 C           7.659987  -11.676007    1.394859 C.ar      1 <1>         0.077501 
      2 C           7.316576  -10.426045    1.226352 C.ar      1 <1>         0.095823 
      3 C           6.818716   -9.626306    2.392517 C.ar      1 <1>         0.016852 
      4 C           6.707245  -10.198312    3.566974 C.ar      1 <1>         0.080968 
      5 C           6.992073  -11.647461    3.715061 C.ar      1 <1>        -0.001036 
      6 C           7.439307  -12.338726    2.711523 C.ar      1 <1>         0.087985 
      7 C           8.266767  -12.451949    0.254450 C.2       1 <1>         0.170915 
      8 C           8.273521  -11.873431   -1.127522 C.3       1 <1>         0.041565 
      9 C           8.365652  -10.326090   -1.017246 C.3       1 <1>         0.097260 
     10 O           7.408085   -9.842498   -0.048851 O.3       1 <1>        -0.335303 
     11 O           8.745917  -13.560190    0.438270 O.2       1 <1>        -0.291783 
     12 O           7.694345  -13.703764    2.889792 O.3       1 <1>        -0.358966 
     13 O           6.328132   -9.438440    4.677173 O.3       1 <1>        -0.359385 
     14 C           6.464231   -8.134037    2.227589 C.3       1 <1>        -0.004331 
     15 C           5.258426   -7.651784    3.030438 C.2       1 <1>        -0.080815 
     16 C           3.976169   -7.819194    2.680872 C.2       1 <1>        -0.079306 
     17 C           2.836090   -7.272394    3.521762 C.3       1 <1>        -0.044040 
     18 C           3.558400   -8.565226    1.435675 C.3       1 <1>        -0.044040 
     19 C           9.733972   -9.670162   -0.732488 C.ar      1 <1>        -0.015121 
     20 C          10.876370  -10.283535   -0.748041 C.ar      1 <1>        -0.050009 
     21 C          12.146998   -9.559396   -0.474179 C.ar      1 <1>        -0.011066 
     22 C          12.110162   -8.292939   -0.203214 C.ar      1 <1>         0.105697 
     23 C          10.809694   -7.566411   -0.202746 C.ar      1 <1>         0.102807 
     24 C           9.716686   -8.212598   -0.434595 C.ar      1 <1>        -0.023728 
     25 O          13.281091   -7.600748    0.097383 O.3       1 <1>        -0.357038 
     26 C          13.456772  -10.371897   -0.516234 C.3       1 <1>        -0.006717 
     27 C          14.661784   -9.724501   -1.158409 C.2       1 <1>        -0.080897 
     28 C          15.866930  -10.306722   -1.275413 C.2       1 <1>        -0.079307 
     29 C          16.171721  -11.727225   -0.830050 C.3       1 <1>        -0.044040 
     30 C          17.042007   -9.571137   -1.884804 C.3       1 <1>        -0.044040 
     31 O          10.797889   -6.187688    0.050676 O.3       1 <1>        -0.357261 
     32 H           6.816148  -12.133817    4.668569 H         1 <1>         0.066932 
     33 H           7.323533  -12.168420   -1.598246 H         1 <1>         0.037400 
     34 H           9.072140  -12.311673   -1.740509 H         1 <1>         0.037400 
     35 H           8.082595   -9.922227   -2.004738 H         1 <1>         0.065572 
     36 H           8.087613  -14.118766    2.126542 H         1 <1>         0.217342 
     37 H           6.316216   -9.917965    5.497218 H         1 <1>         0.217328 
     38 H           7.347393   -7.549987    2.542262 H         1 <1>         0.035721 
     39 H           6.312178   -7.907552    1.159871 H         1 <1>         0.035721 
     40 H           5.497018   -7.126078    3.962770 H         1 <1>         0.057473 
     41 H           3.203530   -6.720160    4.399566 H         1 <1>         0.027427 
     42 H           2.228473   -6.573526    2.933013 H         1 <1>         0.027427 
     43 H           2.175087   -8.074567    3.888265 H         1 <1>         0.027427 
     44 H           2.677239   -9.195411    1.644850 H         1 <1>         0.027427 
     45 H           3.304392   -7.820923    0.667877 H         1 <1>         0.027427 
     46 H           4.358535   -9.215143    1.062334 H         1 <1>         0.027427 
     47 H          10.932588  -11.342914   -0.958703 H         1 <1>         0.062473 
     48 H           8.766670   -7.690187   -0.419262 H         1 <1>         0.064759 
     49 H          13.154493   -6.656106    0.037484 H         1 <1>         0.217432 
     50 H          13.269528  -11.290045   -1.090052 H         1 <1>         0.035641 
     51 H          13.692308  -10.651590    0.520630 H         1 <1>         0.035641 
     52 H          14.541670   -8.719893   -1.557810 H         1 <1>         0.057472 
     53 H          15.332200  -12.251553   -0.347057 H         1 <1>         0.027427 
     54 H          17.015634  -11.733251   -0.124949 H         1 <1>         0.027427 
     55 H          16.468862  -12.318763   -1.709116 H         1 <1>         0.027427 
     56 H          16.807196   -8.523763   -2.123919 H         1 <1>         0.027427 
     57 H          17.884362   -9.574928   -1.174555 H         1 <1>         0.027427 
     58 H          17.356410  -10.078798   -2.810552 H         1 <1>         0.027427 
     59 H          10.072235   -5.712815   -0.348620 H         1 <1>         0.217422 
@<TRIPOS>BOND
     1    1    2 2    
     2    1    6 1    
     3    1    7 1    
     4    2    3 1    
     5    2   10 1    
     6    3    4 2    
     7    3   14 1    
     8    4    5 1    
     9    4   13 1    
    10    5    6 2    
    11    5   32 1    
    12    6   12 1    
    13    7    8 1    
    14    7   11 2    
    15    8    9 1    
    16    8   33 1    
    17    8   34 1    
    18    9   10 1    
    19    9   19 1    
    20    9   35 1    
    21   12   36 1    
    22   13   37 1    
    23   14   15 1    
    24   14   38 1    
    25   14   39 1    
    26   15   16 2    
    27   15   40 1    
    28   16   17 1    
    29   16   18 1    
    30   17   41 1    
    31   17   42 1    
    32   17   43 1    
    33   18   44 1    
    34   18   45 1    
    35   18   46 1    
    36   19   20 2    
    37   19   24 1    
    38   20   21 1    
    39   20   47 1    
    40   21   22 2    
    41   21   26 1    
    42   22   23 1    
    43   22   25 1    
    44   23   24 2    
    45   23   31 1    
    46   24   48 1    
    47   25   49 1    
    48   26   27 1    
    49   26   50 1    
    50   26   51 1    
    51   27   28 2    
    52   27   52 1    
    53   28   29 1    
    54   28   30 1    
    55   29   53 1    
    56   29   54 1    
    57   29   55 1    
    58   30   56 1    
    59   30   57 1    
    60   30   58 1    
    61   31   59 1    
@<TRIPOS>SUBSTRUCTURE
     1 ****        1 TEMP              0 ****  ****    0 ROOT 
@<TRIPOS>NORMAL
@<TRIPOS>FF_PBC
FORCE_FIELD_SETUP_FEATURE Force Field Setup information
v1.0  0 0.000000 0.000000 0.000000 0.000000 0.000000 0.000000 NONE 0 0 0 0 1 0 0 0 0 0 0 0 0
