@<TRIPOS>MOLECULE
MOL004067
   38    39     1     1     0
SMALL
GASTEIGER


@<TRIPOS>ATOM
      1 O           4.651365   -1.202008    0.500607 O.2       1 <1>        -0.292673 
      2 C           0.822656    0.240721   -0.312336 C.3       1 <1>        -0.007171 
      3 C          -0.606673    0.531485    0.261614 C.3       1 <1>        -0.037122 
      4 C           1.868556    1.072681    0.522896 C.3       1 <1>        -0.027774 
      5 C           1.170471   -1.243868   -0.216479 C.2       1 <1>        -0.060053 
      6 C          -1.698959   -0.489647   -0.146532 C.3       1 <1>        -0.019334 
      7 C           0.070215   -2.253914   -0.483326 C.3       1 <1>        -0.030278 
      8 C          -1.242111   -1.911611    0.258195 C.3       1 <1>        -0.042783 
      9 C           0.869211    0.601494   -1.828993 C.3       1 <1>        -0.055557 
     10 C           3.341764    0.731917    0.169766 C.3       1 <1>         0.013229 
     11 C           2.412309   -1.667236    0.060892 C.2       1 <1>        -0.019440 
     12 C           1.683157    2.618640    0.477137 C.3       1 <1>        -0.061231 
     13 C           3.542595   -0.751163    0.260582 C.2       1 <1>         0.156351 
     14 C          -3.039359   -0.126367    0.472678 C.2       1 <1>        -0.076573 
     15 C          -4.126763    0.312901   -0.484639 C.3       1 <1>        -0.043777 
     16 C          -3.261419   -0.181630    1.794341 C.2       1 <1>        -0.099446 
     17 H          -0.958959    1.523831   -0.059956 H         1 <1>         0.027936 
     18 H          -0.566068    0.531080    1.361190 H         1 <1>         0.027936 
     19 H           1.751585    0.771915    1.579692 H         1 <1>         0.031055 
     20 H          -1.813141   -0.476985   -1.242357 H         1 <1>         0.034578 
     21 H          -0.116495   -2.282876   -1.567971 H         1 <1>         0.031045 
     22 H           0.369972   -3.271658   -0.182565 H         1 <1>         0.031045 
     23 H          -2.027961   -2.639835   -0.006245 H         1 <1>         0.027400 
     24 H          -1.055509   -1.980438    1.341516 H         1 <1>         0.027400 
     25 H           0.171224   -0.009994   -2.415910 H         1 <1>         0.023820 
     26 H           0.597542    1.651919   -2.000804 H         1 <1>         0.023820 
     27 H           1.869373    0.428388   -2.248749 H         1 <1>         0.023820 
     28 H           4.017677    1.214562    0.894799 H         1 <1>         0.034777 
     29 H           3.626559    1.079591   -0.832979 H         1 <1>         0.034777 
     30 H           2.646153   -2.729653    0.136029 H         1 <1>         0.065199 
     31 H           2.414803    3.104007    1.141989 H         1 <1>         0.023278 
     32 H           1.848341    3.009551   -0.536423 H         1 <1>         0.023278 
     33 H           0.686142    2.927799    0.819744 H         1 <1>         0.023278 
     34 H          -3.778708    1.185997   -1.057739 H         1 <1>         0.027436 
     35 H          -4.353916   -0.505593   -1.184904 H         1 <1>         0.027436 
     36 H          -5.059561    0.591952    0.029703 H         1 <1>         0.027436 
     37 H          -4.228554    0.080782    2.221276 H         1 <1>         0.053440 
     38 H          -2.496015   -0.485537    2.505060 H         1 <1>         0.053440 
@<TRIPOS>BOND
     1   13    1 2    
     2    2    3 1    
     3    4    2 1    
     4    2    5 1    
     5    2    9 1    
     6    3    6 1    
     7    3   17 1    
     8    3   18 1    
     9   10    4 1    
    10    4   12 1    
    11    4   19 1    
    12    5    7 1    
    13    5   11 2    
    14    6    8 1    
    15    6   14 1    
    16    6   20 1    
    17    7    8 1    
    18    7   21 1    
    19    7   22 1    
    20    8   23 1    
    21    8   24 1    
    22    9   25 1    
    23    9   26 1    
    24    9   27 1    
    25   10   13 1    
    26   10   28 1    
    27   10   29 1    
    28   11   13 1    
    29   11   30 1    
    30   12   31 1    
    31   12   32 1    
    32   12   33 1    
    33   14   15 1    
    34   14   16 2    
    35   15   34 1    
    36   15   35 1    
    37   15   36 1    
    38   16   37 1    
    39   16   38 1    
@<TRIPOS>SUBSTRUCTURE
     1 ****        2 TEMP              0 ****  ****    0 ROOT 
@<TRIPOS>NORMAL
@<TRIPOS>FF_PBC
FORCE_FIELD_SETUP_FEATURE Force Field Setup information
v1.0  0 0.000000 0.000000 0.000000 0.000000 0.000000 0.000000 NONE 0 0 0 0 1 0 0 0 0 0 0 0 0
