@<TRIPOS>MOLECULE
MOL002207
   32    33     1     1     0
SMALL
GASTEIGER


@<TRIPOS>ATOM
      1 C          -0.536531   -0.919102   -0.265489 C.3       1 <1>         0.016368 
      2 C          -0.849396   -2.374142   -0.399714 C.2       1 <1>         0.025704 
      3 C           1.014327   -1.007805   -0.092782 C.3       1 <1>         0.075325 
      4 C          -1.377900   -0.345270    0.903807 C.3       1 <1>        -0.043365 
      5 C           0.386741   -2.987909   -0.858648 C.2       1 <1>         0.290113 
      6 C          -2.028114   -2.933171   -0.106869 C.2       1 <1>        -0.074802 
      7 O           1.448057   -2.194882   -0.802288 O.3       1 <1>        -0.307742 
      8 C           1.820941    0.199681   -0.641068 C.3       1 <1>        -0.025431 
      9 C          -2.871030   -0.601195    0.562249 C.3       1 <1>        -0.048964 
     10 O           0.450380   -4.134618   -1.268997 O.2       1 <1>        -0.259567 
     11 C          -3.166454   -2.126066    0.470624 C.3       1 <1>        -0.034003 
     12 C           1.430914    1.555116    0.006767 C.3       1 <1>        -0.050929 
     13 C           2.401847    2.688067   -0.424729 C.3       1 <1>        -0.055830 
     14 C           1.994620    4.047607    0.201186 C.3       1 <1>        -0.065275 
     15 H          -0.778014   -0.424970   -1.220889 H         1 <1>         0.037586 
     16 H           1.240340   -1.161707    0.976813 H         1 <1>         0.060810 
     17 H          -1.203808    0.733495    1.029084 H         1 <1>         0.027199 
     18 H          -1.122488   -0.848930    1.850384 H         1 <1>         0.027199 
     19 H          -2.156751   -4.005243   -0.261064 H         1 <1>         0.057662 
     20 H           2.887652   -0.002764   -0.450725 H         1 <1>         0.029046 
     21 H           1.678088    0.259440   -1.732140 H         1 <1>         0.029046 
     22 H          -3.523890   -0.137041    1.320783 H         1 <1>         0.026841 
     23 H          -3.099126   -0.126637   -0.406970 H         1 <1>         0.026841 
     24 H          -4.087651   -2.300514   -0.108651 H         1 <1>         0.030752 
     25 H          -3.326146   -2.514315    1.489773 H         1 <1>         0.030752 
     26 H           0.414206    1.832706   -0.311629 H         1 <1>         0.026600 
     27 H           1.447117    1.457736    1.104633 H         1 <1>         0.026600 
     28 H           3.427477    2.439721   -0.104215 H         1 <1>         0.026266 
     29 H           2.396937    2.780240   -1.523797 H         1 <1>         0.026266 
     30 H           2.698682    4.835029   -0.111207 H         1 <1>         0.022978 
     31 H           0.982633    4.334057   -0.125126 H         1 <1>         0.022978 
     32 H           2.006640    3.983488    1.300492 H         1 <1>         0.022978 
@<TRIPOS>BOND
     1    1    2 1    
     2    1    3 1    
     3    1    4 1    
     4    1   15 1    
     5    2    5 1    
     6    2    6 2    
     7    3    7 1    
     8    3    8 1    
     9    3   16 1    
    10    4    9 1    
    11    4   17 1    
    12    4   18 1    
    13    5    7 1    
    14    5   10 2    
    15    6   11 1    
    16    6   19 1    
    17    8   12 1    
    18    8   20 1    
    19    8   21 1    
    20    9   11 1    
    21    9   22 1    
    22    9   23 1    
    23   11   24 1    
    24   11   25 1    
    25   12   13 1    
    26   12   26 1    
    27   12   27 1    
    28   13   14 1    
    29   13   28 1    
    30   13   29 1    
    31   14   30 1    
    32   14   31 1    
    33   14   32 1    
@<TRIPOS>SUBSTRUCTURE
     1 ****        1 TEMP              0 ****  ****    0 ROOT 
@<TRIPOS>NORMAL
@<TRIPOS>FF_PBC
FORCE_FIELD_SETUP_FEATURE Force Field Setup information
v1.0  0 0.000000 0.000000 0.000000 0.000000 0.000000 0.000000 NONE 0 0 0 0 1 0 0 0 0 0 0 0 0
