@<TRIPOS>MOLECULE
MOL003573
   35    36     1     1     0
SMALL
GASTEIGER


@<TRIPOS>ATOM
      1 C          -1.006659    0.625815   -0.808895 C.3       1 <1>        -0.009516 
      2 C          -1.679084    1.119806    0.513517 C.3       1 <1>        -0.039597 
      3 C          -1.774251   -0.528194   -1.508457 C.3       1 <1>        -0.027114 
      4 C           0.399825    0.099000   -0.499700 C.ar      1 <1>        -0.036112 
      5 C           0.544389   -1.239078   -0.050212 C.ar      1 <1>        -0.018939 
      6 C          -1.781248   -1.755316   -0.632318 C.2       1 <1>        -0.079946 
      7 C          -0.690244   -2.110028    0.061633 C.2       1 <1>        -0.046933 
      8 C          -0.810047    2.215588    1.196910 C.3       1 <1>        -0.062106 
      9 C          -3.111916    1.679413    0.277737 C.3       1 <1>        -0.062106 
     10 C           1.594288    0.964242   -0.658568 C.ar      1 <1>        -0.054802 
     11 C           1.896739   -1.742311    0.295228 C.ar      1 <1>        -0.053834 
     12 C           2.867132    0.479278   -0.341800 C.ar      1 <1>        -0.050145 
     13 C          -0.669102   -3.344430    0.931626 C.3       1 <1>        -0.039439 
     14 C           3.016523   -0.910651    0.155240 C.ar      1 <1>        -0.058256 
     15 C           4.099204    1.375180   -0.506684 C.3       1 <1>        -0.039700 
     16 H          -0.934714    1.470872   -1.513492 H         1 <1>         0.035446 
     17 H          -1.756997    0.274232    1.218755 H         1 <1>         0.030137 
     18 H          -1.258339   -0.795687   -2.444876 H         1 <1>         0.031341 
     19 H          -2.796382   -0.225825   -1.778789 H         1 <1>         0.031341 
     20 H          -2.691606   -2.354104   -0.589064 H         1 <1>         0.057500 
     21 H          -0.661861    3.065997    0.513926 H         1 <1>         0.023251 
     22 H          -1.297759    2.585499    2.112069 H         1 <1>         0.023251 
     23 H           0.174474    1.821138    1.489797 H         1 <1>         0.023251 
     24 H          -3.095899    2.454355   -0.503735 H         1 <1>         0.023251 
     25 H          -3.509494    2.127507    1.201552 H         1 <1>         0.023251 
     26 H          -3.812593    0.886213   -0.020255 H         1 <1>         0.023251 
     27 H           1.476881    1.979816   -1.020854 H         1 <1>         0.062318 
     28 H           2.030980   -2.754835    0.657660 H         1 <1>         0.062369 
     29 H          -0.022657   -4.107981    0.474749 H         1 <1>         0.027762 
     30 H          -1.670521   -3.780139    1.067065 H         1 <1>         0.027762 
     31 H          -0.274013   -3.083076    1.924773 H         1 <1>         0.027762 
     32 H           4.000453   -1.288548    0.413366 H         1 <1>         0.062038 
     33 H           5.008901    0.769264   -0.632863 H         1 <1>         0.027753 
     34 H           3.989408    2.024783   -1.388233 H         1 <1>         0.027753 
     35 H           4.206389    2.001203    0.391591 H         1 <1>         0.027753 
@<TRIPOS>BOND
     1    1    2 1    
     2    1    3 1    
     3    1    4 1    
     4    1   16 1    
     5    2    8 1    
     6    2    9 1    
     7    2   17 1    
     8    3    6 1    
     9    3   18 1    
    10    3   19 1    
    11    4    5 2    
    12    4   10 1    
    13    5    7 1    
    14    5   11 1    
    15    6    7 2    
    16    6   20 1    
    17    7   13 1    
    18    8   21 1    
    19    8   22 1    
    20    8   23 1    
    21    9   24 1    
    22    9   25 1    
    23    9   26 1    
    24   10   12 2    
    25   10   27 1    
    26   11   14 2    
    27   11   28 1    
    28   12   14 1    
    29   12   15 1    
    30   13   29 1    
    31   13   30 1    
    32   13   31 1    
    33   14   32 1    
    34   15   33 1    
    35   15   34 1    
    36   15   35 1    
@<TRIPOS>SUBSTRUCTURE
     1 ****        1 TEMP              0 ****  ****    0 ROOT 
@<TRIPOS>NORMAL
@<TRIPOS>FF_PBC
FORCE_FIELD_SETUP_FEATURE Force Field Setup information
v1.0  0 0.000000 0.000000 0.000000 0.000000 0.000000 0.000000 NONE 0 0 0 0 1 0 0 0 0 0 0 0 0
