@<TRIPOS>MOLECULE
MOL009038
   72    75     1     1     0
SMALL
GASTEIGER


@<TRIPOS>ATOM
      1 C           0.029224    1.937607   -4.172668 C.2       1 <1>         0.052281 
      2 O          -0.303262    0.773281   -4.754052 O.3       1 <1>        -0.321655 
      3 C          -0.518416   -0.298657   -3.827884 C.3       1 <1>         0.174328 
      4 C          -1.616343    0.102579   -2.817811 C.3       1 <1>         0.041105 
      5 C          -1.186801    1.368008   -2.036400 C.3       1 <1>         0.006330 
      6 C          -0.309912    2.242981   -2.910302 C.2       1 <1>         0.050785 
      7 C          -2.874624    0.603696   -3.472093 C.2       1 <1>        -0.039915 
      8 C          -3.371807    1.683902   -2.873495 C.2       1 <1>        -0.081574 
      9 C          -2.528324    2.081973   -1.699986 C.3       1 <1>        -0.026630 
     10 O           0.774519   -0.567023   -3.249625 O.3       1 <1>        -0.319115 
     11 C           0.794769   -1.625443   -2.276916 C.3       1 <1>         0.190802 
     12 O           0.947537   -0.968845   -1.006864 O.3       1 <1>        -0.340421 
     13 C           1.089520   -1.881214    0.101179 C.3       1 <1>         0.113366 
     14 C           2.308983   -2.818719   -0.108078 C.3       1 <1>         0.111906 
     15 C           2.202848   -3.550242   -1.465631 C.3       1 <1>         0.114063 
     16 C           2.024916   -2.508514   -2.597522 C.3       1 <1>         0.134212 
     17 C           1.305377   -1.064584    1.399915 C.3       1 <1>         0.079556 
     18 O           0.159990   -0.234558    1.695377 O.3       1 <1>        -0.346050 
     19 C           0.301451    0.454092    2.953310 C.3       1 <1>         0.188012 
     20 O           0.406220   -0.552747    3.978158 O.3       1 <1>        -0.340532 
     21 C           0.542413   -0.017409    5.307934 C.3       1 <1>         0.113005 
     22 C          -0.725545    0.804579    5.656275 C.3       1 <1>         0.111896 
     23 C          -0.899798    1.936045    4.608562 C.3       1 <1>         0.114061 
     24 C          -0.953611    1.329397    3.183214 C.3       1 <1>         0.134113 
     25 C           0.755272   -1.205287    6.279870 C.3       1 <1>         0.073015 
     26 O          -2.111412    2.659573    4.892203 O.3       1 <1>        -0.386401 
     27 O           3.407882   -4.315402   -1.655390 O.3       1 <1>        -0.386401 
     28 C           0.198682    3.516623   -2.357799 C.2       1 <1>         0.291730 
     29 O           1.411310    3.613204   -1.787039 O.3       1 <1>        -0.314939 
     30 O          -0.493064    4.520150   -2.426379 O.2       1 <1>        -0.259507 
     31 C           2.201315    2.405531   -1.779485 C.3       1 <1>         0.046187 
     32 C          -3.438496   -0.113353   -4.671427 C.3       1 <1>         0.065735 
     33 O          -4.793811    0.314811   -4.894606 O.3       1 <1>        -0.390724 
     34 O          -0.597506    1.346752    6.983289 O.3       1 <1>        -0.386488 
     35 O          -1.019533    2.392036    2.213347 O.3       1 <1>        -0.384104 
     36 O           2.367517   -3.768684    0.971547 O.3       1 <1>        -0.386488 
     37 O           1.838753   -3.201137   -3.848864 O.3       1 <1>        -0.384103 
     38 H          -0.637142    1.114034   -1.118527 H         1 <1>         0.036163 
     39 H          -1.883730   -0.715047   -2.129867 H         1 <1>         0.040171 
     40 O           2.016819   -1.838731    5.976488 O.3       1 <1>        -0.392366 
     41 H           0.595646    2.644280   -4.777589 H         1 <1>         0.089058 
     42 H          -0.839290   -1.175070   -4.413111 H         1 <1>         0.092073 
     43 H          -4.275441    2.205342   -3.186841 H         1 <1>         0.057263 
     44 H          -2.443294    3.173620   -1.589374 H         1 <1>         0.031347 
     45 H          -2.991737    1.665875   -0.789427 H         1 <1>         0.031347 
     46 H          -0.088821   -2.288083   -2.302789 H         1 <1>         0.093840 
     47 H           0.172208   -2.481498    0.219237 H         1 <1>         0.064677 
     48 H           3.227223   -2.207077   -0.119667 H         1 <1>         0.064673 
     49 H           1.325803   -4.221094   -1.442899 H         1 <1>         0.064758 
     50 H           2.925344   -1.869926   -2.639049 H         1 <1>         0.067096 
     51 H           2.195031   -0.427432    1.265639 H         1 <1>         0.058744 
     52 H           1.494962   -1.772619    2.222839 H         1 <1>         0.058744 
     53 H           1.192824    1.105064    2.933081 H         1 <1>         0.093741 
     54 H           1.437741    0.622856    5.383451 H         1 <1>         0.064668 
     55 H          -1.603210    0.136916    5.605125 H         1 <1>         0.064673 
     56 H          -0.032980    2.616812    4.679174 H         1 <1>         0.064758 
     57 H          -1.846406    0.685964    3.104400 H         1 <1>         0.067095 
     58 H           0.760416   -0.845321    7.322590 H         1 <1>         0.058370 
     59 H          -0.076123   -1.917926    6.150206 H         1 <1>         0.058370 
     60 H          -2.260635    3.355333    4.258098 H         1 <1>         0.210005 
     61 H           3.405314   -4.777715   -2.488578 H         1 <1>         0.210005 
     62 H           3.163005    2.653344   -1.306863 H         1 <1>         0.052972 
     63 H           2.412689    2.049489   -2.798994 H         1 <1>         0.052972 
     64 H           1.733224    1.600416   -1.195267 H         1 <1>         0.052972 
     65 H          -2.815597    0.117209   -5.552428 H         1 <1>         0.060399 
     66 H          -3.417692   -1.199514   -4.480436 H         1 <1>         0.060399 
     67 H          -5.201359   -0.111329   -5.641693 H         1 <1>         0.209834 
     68 H          -1.359140    1.867735    7.223813 H         1 <1>         0.210004 
     69 H          -1.032833    2.057528    1.320899 H         1 <1>         0.210110 
     70 H           3.108187   -4.362200    0.882391 H         1 <1>         0.210004 
     71 H           1.723124   -2.597089   -4.577602 H         1 <1>         0.210110 
     72 H           2.201719   -2.593952    6.527489 H         1 <1>         0.209508 
@<TRIPOS>BOND
     1    1    2 1    
     2    1    6 2    
     3    1   41 1    
     4    2    3 1    
     5    3    4 1    
     6    3   10 1    
     7    3   42 1    
     8    4    5 1    
     9    4    7 1    
    10    4   39 1    
    11    5    6 1    
    12    5    9 1    
    13    5   38 1    
    14    6   28 1    
    15    7    8 2    
    16    7   32 1    
    17    8    9 1    
    18    8   43 1    
    19    9   44 1    
    20    9   45 1    
    21   10   11 1    
    22   11   12 1    
    23   11   16 1    
    24   11   46 1    
    25   12   13 1    
    26   13   14 1    
    27   13   17 1    
    28   13   47 1    
    29   14   15 1    
    30   14   36 1    
    31   14   48 1    
    32   15   16 1    
    33   15   27 1    
    34   15   49 1    
    35   16   37 1    
    36   16   50 1    
    37   17   18 1    
    38   17   51 1    
    39   17   52 1    
    40   18   19 1    
    41   19   20 1    
    42   19   24 1    
    43   19   53 1    
    44   20   21 1    
    45   21   22 1    
    46   21   25 1    
    47   21   54 1    
    48   22   23 1    
    49   22   34 1    
    50   22   55 1    
    51   23   24 1    
    52   23   26 1    
    53   23   56 1    
    54   24   35 1    
    55   24   57 1    
    56   25   40 1    
    57   25   58 1    
    58   25   59 1    
    59   26   60 1    
    60   27   61 1    
    61   28   29 1    
    62   28   30 2    
    63   29   31 1    
    64   31   62 1    
    65   31   63 1    
    66   31   64 1    
    67   32   33 1    
    68   32   65 1    
    69   32   66 1    
    70   33   67 1    
    71   34   68 1    
    72   35   69 1    
    73   36   70 1    
    74   37   71 1    
    75   40   72 1    
@<TRIPOS>SUBSTRUCTURE
     1 ****        1 TEMP              0 ****  ****    0 ROOT 
@<TRIPOS>NORMAL
@<TRIPOS>FF_PBC
FORCE_FIELD_SETUP_FEATURE Force Field Setup information
v1.0  0 0.000000 0.000000 0.000000 0.000000 0.000000 0.000000 NONE 0 0 0 0 1 0 0 0 0 0 0 0 0
