@<TRIPOS>MOLECULE
MOL004805
   55    58     1     1     0
SMALL
GASTEIGER


@<TRIPOS>ATOM
      1 O           0.411372   -1.323720   -0.196448 O.3       1 <1>        -0.335081 
      2 O           4.976054    0.388689   -0.797838 O.3       1 <1>        -0.334125 
      3 O           1.723621   -4.813667    1.406993 O.2       1 <1>        -0.291871 
      4 O          -5.990837   -1.095084   -0.828239 O.3       1 <1>        -0.359551 
      5 C          -0.357190   -2.529440   -0.359181 C.3       1 <1>         0.097193 
      6 C          -0.141870   -3.458748    0.858417 C.3       1 <1>         0.041477 
      7 C           4.507665    1.746713   -0.689321 C.3       1 <1>         0.088837 
      8 C           1.789526   -1.496469   -0.042557 C.ar      1 <1>         0.097012 
      9 C           2.721092   -0.429462   -0.475943 C.ar      1 <1>         0.035456 
     10 C           2.305403   -2.682308    0.524156 C.ar      1 <1>         0.048186 
     11 C           4.106513   -0.604844   -0.349145 C.ar      1 <1>         0.086906 
     12 C          -1.841963   -2.166084   -0.481942 C.ar      1 <1>        -0.017553 
     13 C           1.328783   -3.745965    0.967404 C.2       1 <1>         0.168447 
     14 C           3.080468    1.885535   -1.174680 C.2       1 <1>        -0.051917 
     15 C           2.221270    0.866497   -1.067418 C.2       1 <1>        -0.050875 
     16 C           3.770523   -2.862870    0.671093 C.ar      1 <1>        -0.046300 
     17 C           4.646147   -1.850626    0.243216 C.ar      1 <1>        -0.030235 
     18 C           5.459200    2.611191   -1.555518 C.3       1 <1>        -0.031936 
     19 C           4.572110    2.184751    0.796679 C.3       1 <1>        -0.031936 
     20 C          -2.387987   -1.154228    0.324418 C.ar      1 <1>        -0.050171 
     21 C          -2.713969   -2.874017   -1.450723 C.ar      1 <1>        -0.053644 
     22 C          -3.820648   -0.785167    0.212797 C.ar      1 <1>        -0.013597 
     23 C          -4.644845   -1.452970   -0.716793 C.ar      1 <1>         0.076054 
     24 C          -4.069767   -2.527773   -1.565639 C.ar      1 <1>        -0.031324 
     25 C          -4.389398    0.322494    1.106429 C.3       1 <1>        -0.006801 
     26 C          -4.260540    1.626044    0.354770 C.2       1 <1>        -0.080898 
     27 C          -3.492498    2.667775    0.713116 C.2       1 <1>        -0.079307 
     28 C          -3.441390    3.931989   -0.118022 C.3       1 <1>        -0.044040 
     29 C          -2.630737    2.661189    1.956019 C.3       1 <1>        -0.044040 
     30 H          -0.026935   -3.031349   -1.284795 H         1 <1>         0.065571 
     31 H          -0.710822   -4.393379    0.729952 H         1 <1>         0.037398 
     32 H          -0.474136   -2.958774    1.780701 H         1 <1>         0.037398 
     33 H           2.740850    2.832377   -1.595538 H         1 <1>         0.060053 
     34 H           1.182477    0.956972   -1.386650 H         1 <1>         0.062283 
     35 H           4.163789   -3.775616    1.107338 H         1 <1>         0.062610 
     36 H           5.719284   -1.972479    0.343080 H         1 <1>         0.064368 
     37 H           6.499169    2.483627   -1.218648 H         1 <1>         0.026052 
     38 H           5.390815    2.293311   -2.607217 H         1 <1>         0.026052 
     39 H           5.194461    3.677502   -1.489275 H         1 <1>         0.026052 
     40 H           5.597608    2.066250    1.178384 H         1 <1>         0.026052 
     41 H           4.273246    3.238995    0.901949 H         1 <1>         0.026052 
     42 H           3.898306    1.565566    1.408459 H         1 <1>         0.026052 
     43 H          -1.755122   -0.634367    1.035207 H         1 <1>         0.062471 
     44 H          -2.306362   -3.663011   -2.074512 H         1 <1>         0.062190 
     45 H          -4.695930   -3.052437   -2.279637 H         1 <1>         0.064338 
     46 H          -5.453429    0.134786    1.317359 H         1 <1>         0.035640 
     47 H          -3.865877    0.311960    2.072390 H         1 <1>         0.035640 
     48 H          -4.856597    1.690321   -0.556936 H         1 <1>         0.057472 
     49 H          -6.457332   -1.571396   -1.505346 H         1 <1>         0.217325 
     50 H          -2.410253    4.100129   -0.463645 H         1 <1>         0.027427 
     51 H          -3.753341    4.787337    0.499984 H         1 <1>         0.027427 
     52 H          -4.095350    3.893426   -1.002249 H         1 <1>         0.027427 
     53 H          -3.267502    2.587001    2.850404 H         1 <1>         0.027427 
     54 H          -2.032233    3.580804    2.041652 H         1 <1>         0.027427 
     55 H          -1.933190    1.811118    1.930991 H         1 <1>         0.027427 
@<TRIPOS>BOND
     1    5    1 1    
     2    1    8 1    
     3    2    7 1    
     4   11    2 1    
     5   13    3 2    
     6   23    4 1    
     7    4   49 1    
     8    5    6 1    
     9   12    5 1    
    10    5   30 1    
    11    6   13 1    
    12    6   31 1    
    13    6   32 1    
    14   14    7 1    
    15    7   18 1    
    16    7   19 1    
    17    8    9 1    
    18    8   10 2    
    19    9   11 2    
    20    9   15 1    
    21   13   10 1    
    22   10   16 1    
    23   11   17 1    
    24   20   12 2    
    25   12   21 1    
    26   15   14 2    
    27   14   33 1    
    28   15   34 1    
    29   16   17 2    
    30   16   35 1    
    31   17   36 1    
    32   18   37 1    
    33   18   38 1    
    34   18   39 1    
    35   19   40 1    
    36   19   41 1    
    37   19   42 1    
    38   22   20 1    
    39   20   43 1    
    40   21   24 2    
    41   21   44 1    
    42   22   23 2    
    43   22   25 1    
    44   23   24 1    
    45   24   45 1    
    46   25   26 1    
    47   25   46 1    
    48   25   47 1    
    49   26   27 2    
    50   26   48 1    
    51   27   28 1    
    52   27   29 1    
    53   28   50 1    
    54   28   51 1    
    55   28   52 1    
    56   29   53 1    
    57   29   54 1    
    58   29   55 1    
@<TRIPOS>SUBSTRUCTURE
     1 ****        1 TEMP              0 ****  ****    0 ROOT 
@<TRIPOS>NORMAL
@<TRIPOS>FF_PBC
FORCE_FIELD_SETUP_FEATURE Force Field Setup information
v1.0  0 0.000000 0.000000 0.000000 0.000000 0.000000 0.000000 NONE 0 0 0 0 1 0 0 0 0 0 0 0 0
