@<TRIPOS>MOLECULE
MOL000061
   17    17     1     1     0
SMALL
GASTEIGER


@<TRIPOS>ATOM
      1 C           1.491523    0.960569    0.628664 C.2       1 <1>         0.276748 
      2 N           0.658148   -1.206767   -0.325203 N.3       1 <1>        -0.305028 
      3 C           0.844603    0.251786   -0.542335 C.3       1 <1>         0.093898 
      4 C          -0.573942    0.819947   -0.801746 C.3       1 <1>        -0.027128 
      5 C          -1.474847   -0.159273   -0.024567 C.3       1 <1>        -0.038533 
      6 C          -0.790545   -1.507173   -0.334433 C.3       1 <1>        -0.003347 
      7 O           2.408112    1.753811    0.476219 O.2       1 <1>        -0.263431 
      8 O           0.999818    0.662563    1.833369 O.3       1 <1>        -0.330092 
      9 H           1.107159   -1.517617    0.612066 H         1 <1>         0.122659 
     10 H           1.487805    0.399665   -1.425282 H         1 <1>         0.056425 
     11 H          -0.815495    0.745289   -1.875766 H         1 <1>         0.028558 
     12 H          -0.698240    1.867990   -0.483536 H         1 <1>         0.028558 
     13 H          -1.414935    0.047945    1.056526 H         1 <1>         0.027809 
     14 H          -2.530742   -0.125503   -0.339548 H         1 <1>         0.027809 
     15 H          -1.052570   -1.835766   -1.353542 H         1 <1>         0.042418 
     16 H          -1.090855   -2.297747    0.374399 H         1 <1>         0.042418 
     17 H           1.445100    1.140282    2.524615 H         1 <1>         0.220259 
@<TRIPOS>BOND
     1    1    3 1    
     2    1    7 2    
     3    1    8 1    
     4    3    2 1    
     5    2    6 1    
     6    2    9 1    
     7    3    4 1    
     8    3   10 1    
     9    4    5 1    
    10    4   11 1    
    11    4   12 1    
    12    5    6 1    
    13    5   13 1    
    14    5   14 1    
    15    6   15 1    
    16    6   16 1    
    17    8   17 1    
@<TRIPOS>SUBSTRUCTURE
     1 ****        1 TEMP              0 ****  ****    0 ROOT 
@<TRIPOS>NORMAL
@<TRIPOS>FF_PBC
FORCE_FIELD_SETUP_FEATURE Force Field Setup information
v1.0  0 0.000000 0.000000 0.000000 0.000000 0.000000 0.000000 NONE 0 0 0 0 1 0 0 0 0 0 0 0 0
