@<TRIPOS>MOLECULE
MOL004349
   85    90     1     1     0
SMALL
GASTEIGER


@<TRIPOS>ATOM
      1 C          -6.018098   -1.802001   -2.140612 C.3       1 <1>         0.117039 
      2 C          -5.723443   -1.860586   -0.615717 C.3       1 <1>         0.134363 
      3 C          -4.351592   -2.562099   -0.412057 C.3       1 <1>         0.188100 
      4 O          -4.411160   -3.896443   -0.940121 O.3       1 <1>        -0.343072 
      5 C          -4.603503   -3.927843   -2.367088 C.3       1 <1>         0.087315 
      6 C          -5.935014   -3.230928   -2.742785 C.3       1 <1>         0.109723 
      7 C          -1.778983   -0.044238   -1.395166 C.3       1 <1>        -0.025895 
      8 C          -2.580874   -0.881319   -0.369698 C.3       1 <1>         0.062084 
      9 C          -1.658182   -1.569282    0.683802 C.3       1 <1>        -0.023072 
     10 C          -0.207645   -0.993855    0.739155 C.3       1 <1>        -0.030685 
     11 C          -0.159783    0.567378    0.631628 C.3       1 <1>         0.000023 
     12 C          -0.821083    0.995803   -0.737147 C.3       1 <1>        -0.042425 
     13 C           0.718948   -1.748369   -0.279479 C.3       1 <1>        -0.049195 
     14 C           1.922211   -0.897171   -0.768255 C.3       1 <1>        -0.047044 
     15 C           2.398859   -0.025868    0.415705 C.3       1 <1>        -0.008176 
     16 C           1.342417    1.077217    0.754299 C.3       1 <1>        -0.027572 
     17 C           3.867233    0.480460    0.260974 C.3       1 <1>         0.075065 
     18 C           4.337182    1.305953    1.499104 C.3       1 <1>         0.003573 
     19 C           3.235130    2.321914    1.934852 C.3       1 <1>        -0.044173 
     20 C           1.822503    1.691446    2.108351 C.3       1 <1>        -0.048682 
     21 C           4.133945    1.389504   -0.975067 C.3       1 <1>        -0.022640 
     22 C           5.174832    2.452709   -0.513721 C.3       1 <1>        -0.043213 
     23 C           5.581518    2.053244    0.931772 C.3       1 <1>        -0.009153 
     24 C           6.149109    3.136940    1.826047 C.2       1 <1>        -0.034296 
     25 C           5.842997    4.601162    1.605500 C.3       1 <1>         0.079215 
     26 O           6.547300    5.268221    2.673455 O.3       1 <1>        -0.307461 
     27 C           7.176973    4.310099    3.346326 C.2       1 <1>         0.286919 
     28 C           6.963881    2.951480    2.863205 C.2       1 <1>         0.011648 
     29 O           7.885261    4.554982    4.308960 O.2       1 <1>        -0.259869 
     30 C           4.733828    0.406592    2.713069 C.3       1 <1>        -0.056385 
     31 O           4.646594   -0.730767    0.129468 O.3       1 <1>        -0.387731 
     32 C          -1.022620    1.191051    1.785570 C.3       1 <1>         0.050345 
     33 H           0.177718   -1.229434    1.748430 H         1 <1>         0.030772 
     34 O          -3.289137   -1.887271   -1.121303 O.3       1 <1>        -0.345421 
     35 O          -6.050988   -3.178136   -4.177714 O.3       1 <1>        -0.386571 
     36 O          -5.727850   -0.544145   -0.024338 O.3       1 <1>        -0.384095 
     37 C          -4.604161   -5.416503   -2.795807 C.3       1 <1>        -0.036060 
     38 O          -7.348798   -1.347352   -2.490947 O.3       1 <1>        -0.374388 
     39 C          -7.660436   -0.002297   -2.082296 C.3       1 <1>         0.037030 
     40 O          -1.040435    2.629892    1.693363 O.3       1 <1>        -0.394442 
     41 H          -5.261667   -1.170729   -2.635199 H         1 <1>         0.065017 
     42 H          -6.515692   -2.472873   -0.151796 H         1 <1>         0.067104 
     43 H          -4.146421   -2.685148    0.662849 H         1 <1>         0.093748 
     44 H          -3.773965   -3.428737   -2.896557 H         1 <1>         0.062075 
     45 H          -6.763770   -3.826942   -2.323077 H         1 <1>         0.064592 
     46 H          -2.493720    0.479761   -2.053813 H         1 <1>         0.029030 
     47 H          -1.226594   -0.721079   -2.059322 H         1 <1>         0.029030 
     48 H          -3.290998   -0.182632    0.097423 H         1 <1>         0.059686 
     49 H          -2.139212   -1.499552    1.673780 H         1 <1>         0.029297 
     50 H          -1.586840   -2.646572    0.461200 H         1 <1>         0.029297 
     51 H          -1.394547    1.925139   -0.591002 H         1 <1>         0.027228 
     52 H          -0.080593    1.244541   -1.511511 H         1 <1>         0.027228 
     53 H           1.115843   -2.639647    0.238965 H         1 <1>         0.026822 
     54 H           0.195951   -2.148845   -1.157880 H         1 <1>         0.026822 
     55 H           1.658013   -0.256128   -1.620312 H         1 <1>         0.026900 
     56 H           2.714591   -1.578818   -1.119850 H         1 <1>         0.026900 
     57 H           2.457054   -0.719526    1.268821 H         1 <1>         0.033147 
     58 H           1.421933    1.917595    0.052419 H         1 <1>         0.031049 
     59 H           3.536794    2.807594    2.877815 H         1 <1>         0.027168 
     60 H           3.130769    3.119462    1.185463 H         1 <1>         0.027168 
     61 H           1.821653    0.937228    2.909698 H         1 <1>         0.026840 
     62 H           1.181683    2.521647    2.439313 H         1 <1>         0.026840 
     63 H           4.521571    0.784865   -1.810959 H         1 <1>         0.029328 
     64 H           3.224442    1.886398   -1.341936 H         1 <1>         0.029328 
     65 H           4.702678    3.446515   -0.533778 H         1 <1>         0.027206 
     66 H           6.052213    2.496488   -1.180664 H         1 <1>         0.027206 
     67 H           6.408236    1.332092    0.832645 H         1 <1>         0.035265 
     68 H           6.248979    4.950803    0.644213 H         1 <1>         0.061309 
     69 H           4.772563    4.840818    1.672888 H         1 <1>         0.061309 
     70 H           7.376483    2.027950    3.265836 H         1 <1>         0.067757 
     71 H           3.900949   -0.220265    3.056040 H         1 <1>         0.023614 
     72 H           5.049414    1.027599    3.563424 H         1 <1>         0.023614 
     73 H           5.568773   -0.264259    2.464223 H         1 <1>         0.023614 
     74 H           5.572109   -0.613042   -0.048643 H         1 <1>         0.210195 
     75 H          -0.643974    0.867658    2.768301 H         1 <1>         0.056268 
     76 H          -2.070963    0.872757    1.732138 H         1 <1>         0.056268 
     77 H          -6.852514   -2.737022   -4.445642 H         1 <1>         0.210002 
     78 H          -5.622867   -0.555625    0.922285 H         1 <1>         0.210111 
     79 H          -4.750050   -5.510746   -3.882780 H         1 <1>         0.025536 
     80 H          -3.641700   -5.878434   -2.525690 H         1 <1>         0.025536 
     81 H          -5.408608   -5.960336   -2.278047 H         1 <1>         0.025536 
     82 H          -8.604293    0.274932   -2.573799 H         1 <1>         0.052364 
     83 H          -6.884864    0.714310   -2.393706 H         1 <1>         0.052364 
     84 H          -7.821240    0.068231   -0.997421 H         1 <1>         0.052364 
     85 H          -1.548159    3.055033    2.378923 H         1 <1>         0.209419 
@<TRIPOS>BOND
     1    2    1 1    
     2    1    6 1    
     3    1   38 1    
     4    1   41 1    
     5    3    2 1    
     6    2   36 1    
     7    2   42 1    
     8    3    4 1    
     9   34    3 1    
    10    3   43 1    
    11    4    5 1    
    12    5    6 1    
    13    5   37 1    
    14    5   44 1    
    15    6   35 1    
    16    6   45 1    
    17    8    7 1    
    18    7   12 1    
    19    7   46 1    
    20    7   47 1    
    21    8    9 1    
    22    8   34 1    
    23    8   48 1    
    24    9   10 1    
    25    9   49 1    
    26    9   50 1    
    27   10   11 1    
    28   10   13 1    
    29   10   33 1    
    30   11   12 1    
    31   11   16 1    
    32   11   32 1    
    33   12   51 1    
    34   12   52 1    
    35   13   14 1    
    36   13   53 1    
    37   13   54 1    
    38   14   15 1    
    39   14   55 1    
    40   14   56 1    
    41   15   16 1    
    42   15   17 1    
    43   15   57 1    
    44   16   20 1    
    45   16   58 1    
    46   17   18 1    
    47   17   21 1    
    48   17   31 1    
    49   18   19 1    
    50   18   23 1    
    51   18   30 1    
    52   19   20 1    
    53   19   59 1    
    54   19   60 1    
    55   20   61 1    
    56   20   62 1    
    57   21   22 1    
    58   21   63 1    
    59   21   64 1    
    60   22   23 1    
    61   22   65 1    
    62   22   66 1    
    63   23   24 1    
    64   23   67 1    
    65   24   25 1    
    66   24   28 2    
    67   25   26 1    
    68   25   68 1    
    69   25   69 1    
    70   26   27 1    
    71   27   28 1    
    72   27   29 2    
    73   28   70 1    
    74   30   71 1    
    75   30   72 1    
    76   30   73 1    
    77   31   74 1    
    78   32   40 1    
    79   32   75 1    
    80   32   76 1    
    81   35   77 1    
    82   36   78 1    
    83   37   79 1    
    84   37   80 1    
    85   37   81 1    
    86   38   39 1    
    87   39   82 1    
    88   39   83 1    
    89   39   84 1    
    90   40   85 1    
@<TRIPOS>SUBSTRUCTURE
     1 ****        7 TEMP              0 ****  ****    0 ROOT 
@<TRIPOS>NORMAL
@<TRIPOS>FF_PBC
FORCE_FIELD_SETUP_FEATURE Force Field Setup information
v1.0  0 0.000000 0.000000 0.000000 0.000000 0.000000 0.000000 NONE 0 0 0 0 1 0 0 0 0 0 0 0 0
