@<TRIPOS>MOLECULE
MOL003545
   39    41     1     1     0
SMALL
GASTEIGER


@<TRIPOS>ATOM
      1 C           1.099577    0.418325    0.768310 C.3       1 <1>        -0.022674 
      2 C           2.045220    0.361063   -0.462732 C.3       1 <1>        -0.027588 
      3 C           2.179132   -0.684378    0.677841 C.3       1 <1>        -0.028041 
      4 C          -0.406728    0.010190    0.699874 C.3       1 <1>        -0.004917 
      5 C           1.719893   -2.131271    0.403049 C.3       1 <1>        -0.030858 
      6 C          -1.157074    1.121360   -0.117674 C.3       1 <1>        -0.034492 
      7 C          -0.672213   -1.382147    0.139590 C.2       1 <1>        -0.066995 
      8 C           3.173093    1.428140   -0.490540 C.3       1 <1>        -0.059252 
      9 C           1.596615   -0.138317   -1.864430 C.3       1 <1>        -0.059252 
     10 C           0.279140   -2.318939    0.023234 C.2       1 <1>        -0.083937 
     11 C          -0.888353   -0.071297    2.181546 C.3       1 <1>        -0.055317 
     12 C          -2.631437    0.753674   -0.440352 C.3       1 <1>        -0.049379 
     13 C          -2.096463   -1.707354   -0.270812 C.3       1 <1>        -0.031198 
     14 C          -2.691799   -0.605063   -1.174605 C.3       1 <1>        -0.049078 
     15 C          -1.119081    2.541223    0.521404 C.3       1 <1>        -0.061619 
     16 H           1.372089    1.193811    1.500950 H         1 <1>         0.031739 
     17 H           3.079127   -0.552681    1.300841 H         1 <1>         0.031209 
     18 H           1.884087   -2.715788    1.321649 H         1 <1>         0.031034 
     19 H           2.370564   -2.542979   -0.384021 H         1 <1>         0.031034 
     20 H          -0.644819    1.212554   -1.088488 H         1 <1>         0.030653 
     21 H           2.801767    2.325520   -1.007393 H         1 <1>         0.023516 
     22 H           3.517606    1.725690    0.511542 H         1 <1>         0.023516 
     23 H           4.032798    1.027010   -1.047739 H         1 <1>         0.023516 
     24 H           0.684119   -0.740681   -1.893227 H         1 <1>         0.023516 
     25 H           1.430451    0.736977   -2.509692 H         1 <1>         0.023516 
     26 H           2.414905   -0.730885   -2.299343 H         1 <1>         0.023516 
     27 H           0.029669   -3.307681   -0.364898 H         1 <1>         0.057189 
     28 H          -1.966936   -0.258099    2.266003 H         1 <1>         0.023829 
     29 H          -0.361167   -0.893468    2.691225 H         1 <1>         0.023829 
     30 H          -0.669392    0.850144    2.739978 H         1 <1>         0.023829 
     31 H          -3.076523    1.521716   -1.095478 H         1 <1>         0.026821 
     32 H          -3.234478    0.713242    0.479695 H         1 <1>         0.026821 
     33 H          -2.162418   -2.658649   -0.823857 H         1 <1>         0.031016 
     34 H          -2.716053   -1.820050    0.631387 H         1 <1>         0.031016 
     35 H          -2.120492   -0.551361   -2.116449 H         1 <1>         0.026839 
     36 H          -3.739440   -0.848507   -1.421364 H         1 <1>         0.026839 
     37 H          -1.574784    3.273627   -0.163606 H         1 <1>         0.023268 
     38 H          -1.688243    2.569834    1.461755 H         1 <1>         0.023268 
     39 H          -0.090857    2.876700    0.716527 H         1 <1>         0.023268 
@<TRIPOS>BOND
     1    1    2 1    
     2    1    3 1    
     3    1    4 1    
     4    1   16 1    
     5    2    3 1    
     6    2    8 1    
     7    2    9 1    
     8    3    5 1    
     9    3   17 1    
    10    4    6 1    
    11    4    7 1    
    12    4   11 1    
    13    5   10 1    
    14    5   18 1    
    15    5   19 1    
    16    6   12 1    
    17    6   15 1    
    18    6   20 1    
    19    7   10 2    
    20    7   13 1    
    21    8   21 1    
    22    8   22 1    
    23    8   23 1    
    24    9   24 1    
    25    9   25 1    
    26    9   26 1    
    27   10   27 1    
    28   11   28 1    
    29   11   29 1    
    30   11   30 1    
    31   12   14 1    
    32   12   31 1    
    33   12   32 1    
    34   13   14 1    
    35   13   33 1    
    36   13   34 1    
    37   14   35 1    
    38   14   36 1    
    39   15   37 1    
    40   15   38 1    
    41   15   39 1    
@<TRIPOS>SUBSTRUCTURE
     1 ****        1 TEMP              0 ****  ****    0 ROOT 
@<TRIPOS>NORMAL
@<TRIPOS>FF_PBC
FORCE_FIELD_SETUP_FEATURE Force Field Setup information
v1.0  0 0.000000 0.000000 0.000000 0.000000 0.000000 0.000000 NONE 0 0 0 0 1 0 0 0 0 0 0 0 0
