@<TRIPOS>MOLECULE
MOL003870
   17    17     1     1     0
SMALL
GASTEIGER


@<TRIPOS>ATOM
      1 C          -1.062245    0.658896   -0.573587 C.ar      1 <1>         0.060897 
      2 C           0.215897    0.164119   -0.819252 C.ar      1 <1>         0.179842 
      3 C          -1.668087    0.503491    0.767361 C.ar      1 <1>        -0.041649 
      4 C          -1.809650    1.348930   -1.688283 C.2       1 <1>         0.077314 
      5 N           0.941808   -0.469917    0.149864 N.ar      1 <1>        -0.205880 
      6 C          -0.925585   -0.141827    1.748530 C.ar      1 <1>         0.002718 
      7 O          -2.928046    1.781036   -1.470739 O.co2     1 <1>        -0.544433 
      8 O          -1.242045    1.447115   -2.795686 O.co2     1 <1>        -0.544433 
      9 C           0.427567   -0.638024    1.401719 C.ar      1 <1>         0.171004 
     10 C           2.333759   -0.998800   -0.148974 C.3       1 <1>         0.140399 
     11 H           0.625753    0.297893   -1.816366 H         1 <1>         0.138285 
     12 H          -2.663716    0.884795    0.971634 H         1 <1>         0.062774 
     13 H          -1.328009   -0.279428    2.747186 H         1 <1>         0.067678 
     14 H           1.004634   -1.142089    2.172192 H         1 <1>         0.137590 
     15 H           2.652955   -0.811275   -1.186411 H         1 <1>         0.099298 
     16 H           2.360753   -2.086939    0.020506 H         1 <1>         0.099298 
     17 H           3.064358   -0.517778    0.520608 H         1 <1>         0.099298 
@<TRIPOS>BOND
     1    1    2 2    
     2    1    3 1    
     3    1    4 1    
     4    2    5 1    
     5    2   11 1    
     6    3    6 2    
     7    3   12 1    
     8    4    7 2    
     9    4    8 1    
    10    5    9 2    
    11    5   10 1    
    12    6    9 1    
    13    6   13 1    
    14    9   14 1    
    15   10   15 1    
    16   10   16 1    
    17   10   17 1    
@<TRIPOS>SUBSTRUCTURE
     1 ****        1 TEMP              0 ****  ****    0 ROOT 
@<TRIPOS>NORMAL
@<TRIPOS>FF_PBC
FORCE_FIELD_SETUP_FEATURE Force Field Setup information
v1.0  0 0.000000 0.000000 0.000000 0.000000 0.000000 0.000000 NONE 0 0 0 0 1 0 0 0 0 0 0 0 0
