@<TRIPOS>MOLECULE
MOL006946
   31    33     1     1     0
SMALL
GASTEIGER


@<TRIPOS>ATOM
      1 C          -2.987581   -0.442751    0.061322 C.3       1 <1>         0.191869 
      2 O          -1.764755   -1.153712    0.289590 O.3       1 <1>        -0.285673 
      3 C          -1.069728   -0.504668    1.361285 C.3       1 <1>         0.299907 
      4 C          -1.491912    0.985742    1.271544 C.3       1 <1>         0.175152 
      5 C          -2.484893    1.017476    0.083332 C.3       1 <1>         0.140541 
      6 O          -3.516006    1.997855    0.306732 O.3       1 <1>        -0.383855 
      7 O          -2.148623    1.346094    2.501589 O.3       1 <1>        -0.380242 
      8 O          -3.499270   -0.850534   -1.214552 O.3       1 <1>        -0.364718 
      9 C           0.987007   -0.521189   -0.048808 C.ar      1 <1>         0.334408 
     10 N           0.381992   -0.718413    1.138256 N.ar      1 <1>        -0.131915 
     11 C           1.337470   -1.156816    2.058948 C.ar      1 <1>         0.271616 
     12 N           2.494980   -1.215615    1.388538 N.ar      1 <1>        -0.186585 
     13 C           2.252783   -0.817759    0.098814 C.ar      1 <1>         0.173226 
     14 C           3.241118   -0.699548   -1.054644 C.3       1 <1>         0.121959 
     15 N           2.526110   -0.255214   -2.257161 N.pl3     1 <1>        -0.314482 
     16 C           1.241582    0.010727   -2.260149 C.2       1 <1>         0.089258 
     17 N           0.502551   -0.102401   -1.229345 N.2       1 <1>        -0.177973 
     18 N           4.251807    0.321460   -0.718462 N.3       1 <1>        -0.307616 
     19 H          -3.711375   -0.624651    0.877547 H         1 <1>         0.093778 
     20 H          -1.408851   -0.933889    2.320701 H         1 <1>         0.144559 
     21 H          -0.631319    1.653690    1.092994 H         1 <1>         0.071642 
     22 H          -1.937781    1.210239   -0.856923 H         1 <1>         0.067338 
     23 H          -4.160792    2.027844   -0.393883 H         1 <1>         0.210115 
     24 H          -2.546442    2.212489    2.450830 H         1 <1>         0.210286 
     25 H          -4.298545   -0.393609   -1.455025 H         1 <1>         0.212564 
     26 H           1.187619   -1.404093    3.106854 H         1 <1>         0.162020 
     27 H           3.698699   -1.689169   -1.229718 H         1 <1>         0.073555 
     28 H           3.060871   -0.144981   -3.135256 H         1 <1>         0.148762 
     29 H           0.746682    0.347476   -3.174437 H         1 <1>         0.099967 
     30 H           4.936900    0.465465   -1.543182 H         1 <1>         0.120269 
     31 H           4.809702    0.032458    0.162775 H         1 <1>         0.120269 
@<TRIPOS>BOND
     1    1    2 1    
     2    1    5 1    
     3    1    8 1    
     4    1   19 1    
     5    2    3 1    
     6    3    4 1    
     7    3   10 1    
     8    3   20 1    
     9    4    5 1    
    10    4    7 1    
    11    4   21 1    
    12    5    6 1    
    13    5   22 1    
    14    6   23 1    
    15    7   24 1    
    16    8   25 1    
    17   10    9 1    
    18    9   13 2    
    19    9   17 1    
    20   10   11 1    
    21   11   12 2    
    22   11   26 1    
    23   12   13 1    
    24   13   14 1    
    25   14   15 1    
    26   14   18 1    
    27   14   27 1    
    28   15   16 1    
    29   15   28 1    
    30   16   17 2    
    31   16   29 1    
    32   18   30 1    
    33   18   31 1    
@<TRIPOS>SUBSTRUCTURE
     1 ****        1 TEMP              0 ****  ****    0 ROOT 
@<TRIPOS>NORMAL
@<TRIPOS>FF_PBC
FORCE_FIELD_SETUP_FEATURE Force Field Setup information
v1.0  0 0.000000 0.000000 0.000000 0.000000 0.000000 0.000000 NONE 0 0 0 0 1 0 0 0 0 0 0 0 0
