@<TRIPOS>MOLECULE
MOL004734
   13    12     1     1     0
SMALL
GASTEIGER


@<TRIPOS>ATOM
      1 C          -0.677097    0.555331   -0.000133 C.3       1 <1>         0.002529 
      2 C           0.649699   -0.250493    0.000119 C.3       1 <1>        -0.049494 
      3 C          -0.436736    2.042847    0.000019 C.2       1 <1>         0.120299 
      4 C           0.382318   -1.778147   -0.000080 C.3       1 <1>        -0.064901 
      5 O          -1.385729    2.809869    0.000126 O.2       1 <1>        -0.301035 
      6 H          -1.268341    0.300109   -0.893896 H         1 <1>         0.033862 
      7 H          -1.268743    0.299986    0.893337 H         1 <1>         0.033862 
      8 H           1.238966    0.013559    0.894468 H         1 <1>         0.026654 
      9 H           1.239388    0.013706   -0.893897 H         1 <1>         0.026654 
     10 H           0.570355    2.459743    0.000022 H         1 <1>         0.102608 
     11 H           1.335787   -2.329875    0.000088 H         1 <1>         0.022988 
     12 H          -0.189678   -2.068286   -0.895275 H         1 <1>         0.022988 
     13 H          -0.190089   -2.068450    0.894804 H         1 <1>         0.022988 
@<TRIPOS>BOND
     1    1    2 1    
     2    1    3 1    
     3    1    6 1    
     4    1    7 1    
     5    2    4 1    
     6    2    8 1    
     7    2    9 1    
     8    3    5 2    
     9    3   10 1    
    10    4   11 1    
    11    4   12 1    
    12    4   13 1    
@<TRIPOS>SUBSTRUCTURE
     1 ****        1 TEMP              0 ****  ****    0 ROOT 
@<TRIPOS>NORMAL
@<TRIPOS>FF_PBC
FORCE_FIELD_SETUP_FEATURE Force Field Setup information
v1.0  0 0.000000 0.000000 0.000000 0.000000 0.000000 0.000000 NONE 0 0 0 0 1 0 0 0 0 0 0 0 0
