@<TRIPOS>MOLECULE
MOL000433
   51    53     1     1     0
SMALL
GASTEIGER


@<TRIPOS>ATOM
      1 C           2.941974   -6.746339   -2.081961 C.2       1 <1>         0.259661 
      2 C           2.379294   -5.391533   -2.423963 C.3       1 <1>         0.035158 
      3 C           0.828585   -5.449888   -2.497595 C.3       1 <1>        -0.016225 
      4 C           0.168716   -4.052493   -2.669981 C.3       1 <1>         0.109105 
      5 C           0.697205   -3.393997   -3.922116 C.2       1 <1>         0.280088 
      6 O           0.111564   -3.473994   -4.990438 O.2       1 <1>        -0.263104 
      7 O           1.838028   -2.714040   -3.780818 O.3       1 <1>        -0.329872 
      8 N          -1.288393   -4.203281   -2.748121 N.am      1 <1>        -0.299273 
      9 C          -2.168182   -3.361070   -2.151631 C.2       1 <1>         0.244684 
     10 O          -3.362292   -3.608829   -2.186041 O.2       1 <1>        -0.270183 
     11 C          -1.764330   -2.102362   -1.411751 C.ar      1 <1>         0.036825 
     12 C          -2.354896   -1.844035   -0.076340 C.ar      1 <1>        -0.047894 
     13 C          -2.013655   -0.685817    0.647242 C.ar      1 <1>        -0.040132 
     14 C          -0.870024   -1.159014   -1.949545 C.ar      1 <1>        -0.047894 
     15 C          -0.488487    0.050427   -1.180520 C.ar      1 <1>        -0.040132 
     16 C          -1.050425    0.303660    0.100177 C.ar      1 <1>         0.027450 
     17 N          -0.743742    1.406099    0.834075 N.pl3     1 <1>        -0.338178 
     18 C           0.262988    2.382772    0.420843 C.3       1 <1>         0.052967 
     19 C           0.371400    3.549112    1.409808 C.ar      1 <1>         0.077249 
     20 N          -0.737497    3.984715    2.064605 N.ar      1 <1>        -0.240238 
     21 C          -0.646549    5.050375    2.927872 C.ar      1 <1>         0.170174 
     22 C          -1.839009    5.601518    3.670052 C.2       1 <1>         0.272233 
     23 O          -2.936545    5.089548    3.518990 O.2       1 <1>        -0.267975 
     24 N          -1.642157    6.658025    4.483611 N.am      1 <1>        -0.252863 
     25 C          -0.411518    7.206140    4.636202 C.2       1 <1>         0.186141 
     26 N          -0.291166    8.227759    5.437349 N.pl3     1 <1>        -0.330702 
     27 N           0.606720    6.746694    4.020509 N.2       1 <1>        -0.196770 
     28 C           0.568514    5.700927    3.170721 C.ar      1 <1>         0.186583 
     29 N           1.703637    5.278280    2.548425 N.ar      1 <1>        -0.232366 
     30 C           1.663625    4.230423    1.676712 C.ar      1 <1>         0.052819 
     31 O           3.678660   -6.917006   -1.123140 O.2       1 <1>        -0.265176 
     32 O           2.580534   -7.740354   -2.894968 O.3       1 <1>        -0.331267 
     33 H           2.808557   -5.084939   -3.390697 H         1 <1>         0.036672 
     34 H           2.692813   -4.666804   -1.655917 H         1 <1>         0.036672 
     35 H           0.439946   -5.902017   -1.570164 H         1 <1>         0.029282 
     36 H           0.539073   -6.098550   -3.340774 H         1 <1>         0.029282 
     37 H           0.463133   -3.453794   -1.793117 H         1 <1>         0.060260 
     38 H           2.115929   -2.316118   -4.598976 H         1 <1>         0.220269 
     39 H          -1.657386   -4.973423   -3.272826 H         1 <1>         0.149804 
     40 H          -3.058740   -2.554462    0.345010 H         1 <1>         0.062560 
     41 H          -2.463331   -0.518550    1.620100 H         1 <1>         0.063614 
     42 H          -0.456257   -1.300734   -2.940017 H         1 <1>         0.062560 
     43 H           0.226153    0.728480   -1.629754 H         1 <1>         0.063614 
     44 H          -1.246925    1.573962    1.721070 H         1 <1>         0.146457 
     45 H           1.242548    1.887061    0.336408 H         1 <1>         0.052650 
     46 H          -0.014920    2.832378   -0.544557 H         1 <1>         0.052650 
     47 H          -2.442625    7.015098    4.966526 H         1 <1>         0.157819 
     48 H          -1.100546    8.615529    5.942952 H         1 <1>         0.144914 
     49 H           0.633470    8.661437    5.572109 H         1 <1>         0.144914 
     50 H           2.573160    3.904463    1.185471 H         1 <1>         0.084902 
     51 H           2.959634   -8.570737   -2.627809 H         1 <1>         0.220208 
@<TRIPOS>BOND
     1    1    2 1    
     2    1   31 2    
     3    1   32 1    
     4    2    3 1    
     5    2   33 1    
     6    2   34 1    
     7    3    4 1    
     8    3   35 1    
     9    3   36 1    
    10    4    5 1    
    11    4    8 1    
    12    4   37 1    
    13    5    6 2    
    14    5    7 1    
    15    7   38 1    
    16    8    9 1    
    17    8   39 1    
    18    9   10 2    
    19    9   11 1    
    20   11   12 1    
    21   11   14 2    
    22   12   13 2    
    23   12   40 1    
    24   13   16 1    
    25   13   41 1    
    26   14   15 1    
    27   14   42 1    
    28   15   16 2    
    29   15   43 1    
    30   16   17 1    
    31   17   18 1    
    32   17   44 1    
    33   18   19 1    
    34   18   45 1    
    35   18   46 1    
    36   19   20 2    
    37   19   30 1    
    38   20   21 1    
    39   21   22 1    
    40   21   28 2    
    41   22   23 2    
    42   22   24 1    
    43   24   25 1    
    44   24   47 1    
    45   25   26 1    
    46   25   27 2    
    47   26   48 1    
    48   26   49 1    
    49   27   28 1    
    50   28   29 1    
    51   29   30 2    
    52   30   50 1    
    53   32   51 1    
@<TRIPOS>SUBSTRUCTURE
     1 ****        1 TEMP              0 ****  ****    0 ROOT 
@<TRIPOS>NORMAL
@<TRIPOS>FF_PBC
FORCE_FIELD_SETUP_FEATURE Force Field Setup information
v1.0  0 0.000000 0.000000 0.000000 0.000000 0.000000 0.000000 NONE 0 0 0 0 1 0 0 0 0 0 0 0 0
