@<TRIPOS>MOLECULE
MOL006950
   24    23     1     1     0
SMALL
GASTEIGER


@<TRIPOS>ATOM
      1 C           0.317260   -0.660188    0.277690 C.3       1 <1>         0.108813 
      2 C          -0.778214    0.351246   -0.159893 C.3       1 <1>        -0.016233 
      3 N           1.511769    0.101035    0.652129 N.am      1 <1>        -0.303490 
      4 C          -0.125895   -1.534113    1.431334 C.2       1 <1>         0.280079 
      5 C          -2.038708   -0.347358   -0.740761 C.3       1 <1>         0.035158 
      6 C           2.376247    0.522830   -0.298223 C.2       1 <1>         0.210529 
      7 O           0.623474   -2.617173    1.651909 O.3       1 <1>        -0.329872 
      8 O          -1.099054   -1.267888    2.119876 O.2       1 <1>        -0.263104 
      9 C          -3.085910    0.642222   -1.182009 C.2       1 <1>         0.259661 
     10 C           3.575528    1.325629    0.134152 C.3       1 <1>         0.012165 
     11 O           2.216650    0.281346   -1.483573 O.2       1 <1>        -0.276104 
     12 O          -4.188495    0.106579   -1.709485 O.3       1 <1>        -0.331267 
     13 O          -2.936481    1.848695   -1.065408 O.2       1 <1>        -0.265176 
     14 H           0.542621   -1.339737   -0.561489 H         1 <1>         0.060251 
     15 H          -0.359470    1.011367   -0.937272 H         1 <1>         0.029282 
     16 H          -1.056892    0.977651    0.703087 H         1 <1>         0.029282 
     17 H           1.651649    0.334751    1.616827 H         1 <1>         0.149465 
     18 H          -2.498674   -1.007797    0.009350 H         1 <1>         0.036672 
     19 H          -1.757347   -0.956448   -1.614046 H         1 <1>         0.036672 
     20 H           0.303477   -3.126372    2.388752 H         1 <1>         0.220269 
     21 H           3.240213    2.267178    0.593524 H         1 <1>         0.032247 
     22 H           4.159936    0.752401    0.869005 H         1 <1>         0.032247 
     23 H           4.221257    1.560494   -0.725742 H         1 <1>         0.032247 
     24 H          -4.814937    0.773350   -1.969533 H         1 <1>         0.220208 
@<TRIPOS>BOND
     1    1    2 1    
     2    1    3 1    
     3    1    4 1    
     4    1   14 1    
     5    2    5 1    
     6    2   15 1    
     7    2   16 1    
     8    3    6 1    
     9    3   17 1    
    10    4    7 1    
    11    4    8 2    
    12    5    9 1    
    13    5   18 1    
    14    5   19 1    
    15    6   10 1    
    16    6   11 2    
    17    7   20 1    
    18    9   12 1    
    19    9   13 2    
    20   10   21 1    
    21   10   22 1    
    22   10   23 1    
    23   12   24 1    
@<TRIPOS>SUBSTRUCTURE
     1 ****        1 TEMP              0 ****  ****    0 ROOT 
@<TRIPOS>NORMAL
@<TRIPOS>FF_PBC
FORCE_FIELD_SETUP_FEATURE Force Field Setup information
v1.0  0 0.000000 0.000000 0.000000 0.000000 0.000000 0.000000 NONE 0 0 0 0 1 0 0 0 0 0 0 0 0
