@<TRIPOS>MOLECULE
MOL002151
   54    54     1     1     0
SMALL
GASTEIGER


@<TRIPOS>ATOM
      1 C           2.798940    5.739747   -0.320201 C.2       1 <1>         0.185521 
      2 C           3.954486    6.201010    0.475200 C.2       1 <1>         0.000094 
      3 C           4.286215    5.534225    1.587741 C.2       1 <1>        -0.008393 
      4 C           3.503779    4.362300    2.007713 C.2       1 <1>         0.179727 
      5 C           2.339892    3.926129    1.216952 C.2       1 <1>        -0.007828 
      6 C           1.993236    4.569925    0.094589 C.2       1 <1>         0.006874 
      7 O           2.501360    6.348293   -1.336156 O.2       1 <1>        -0.287325 
      8 O           3.821267    3.753290    3.016671 O.2       1 <1>        -0.287886 
      9 C           0.806095    4.149727   -0.746846 C.3       1 <1>        -0.005486 
     10 C           0.498381    2.666589   -0.735064 C.2       1 <1>        -0.080588 
     11 C          -0.738571    2.151368   -0.853448 C.2       1 <1>        -0.075930 
     12 C          -1.039893    0.663622   -0.792177 C.3       1 <1>        -0.028553 
     13 C           0.079450   -0.296113   -0.298988 C.3       1 <1>        -0.030839 
     14 C          -0.433654   -1.714981   -0.165541 C.2       1 <1>        -0.084718 
     15 C           0.156198   -2.690762    0.547843 C.2       1 <1>        -0.076231 
     16 C          -0.433130   -4.084622    0.694871 C.3       1 <1>        -0.028563 
     17 C          -1.819110   -4.361863    0.048661 C.3       1 <1>        -0.030848 
     18 C          -2.314263   -5.766430    0.309857 C.2       1 <1>        -0.084989 
     19 C          -3.386876   -6.319142   -0.282447 C.2       1 <1>        -0.079608 
     20 C          -3.801365   -7.744418    0.016726 C.3       1 <1>        -0.044049 
     21 C          -4.266362   -5.596148   -1.281639 C.3       1 <1>        -0.044049 
     22 C           1.467674   -2.482797    1.276561 C.3       1 <1>        -0.043778 
     23 C          -1.952127    3.034157   -1.067810 C.3       1 <1>        -0.043768 
     24 C           4.728625    7.411462    0.013540 C.3       1 <1>        -0.035957 
     25 H           5.131202    5.833592    2.209018 H         1 <1>         0.065946 
     26 H           1.778560    3.068466    1.585612 H         1 <1>         0.065965 
     27 H          -0.033587    4.748281   -0.364850 H         1 <1>         0.035678 
     28 H           0.979971    4.418105   -1.800536 H         1 <1>         0.035678 
     29 H           1.361744    2.012003   -0.631830 H         1 <1>         0.057481 
     30 H          -1.893327    0.538197   -0.104537 H         1 <1>         0.031285 
     31 H          -1.359572    0.347587   -1.798815 H         1 <1>         0.031285 
     32 H           0.914785   -0.299699   -1.016413 H         1 <1>         0.031044 
     33 H           0.427741    0.072972    0.678467 H         1 <1>         0.031044 
     34 H          -1.356541   -1.914880   -0.704534 H         1 <1>         0.057163 
     35 H           0.282891   -4.808585    0.274593 H         1 <1>         0.031285 
     36 H          -0.521376   -4.281966    1.775339 H         1 <1>         0.031285 
     37 H          -2.560952   -3.657716    0.458295 H         1 <1>         0.031044 
     38 H          -1.726838   -4.224252   -1.040127 H         1 <1>         0.031044 
     39 H          -1.752196   -6.359956    1.030927 H         1 <1>         0.057155 
     40 H          -3.105124   -8.268171    0.688977 H         1 <1>         0.027427 
     41 H          -3.856987   -8.313564   -0.923802 H         1 <1>         0.027427 
     42 H          -4.795659   -7.742296    0.487756 H         1 <1>         0.027427 
     43 H          -5.320820   -5.695182   -0.983354 H         1 <1>         0.027427 
     44 H          -4.140116   -6.058858   -2.271750 H         1 <1>         0.027427 
     45 H          -4.055666   -4.522604   -1.375714 H         1 <1>         0.027427 
     46 H           2.041743   -1.615339    0.921926 H         1 <1>         0.027436 
     47 H           1.264730   -2.356195    2.350349 H         1 <1>         0.027436 
     48 H           2.113525   -3.364288    1.146594 H         1 <1>         0.027436 
     49 H          -2.775497    2.474612   -1.538126 H         1 <1>         0.027436 
     50 H          -1.729883    3.882842   -1.731401 H         1 <1>         0.027436 
     51 H          -2.303258    3.412379   -0.095385 H         1 <1>         0.027436 
     52 H           5.632034    7.594374    0.615487 H         1 <1>         0.027871 
     53 H           5.031480    7.270608   -1.034732 H         1 <1>         0.027871 
     54 H           4.075152    8.294139    0.082278 H         1 <1>         0.027871 
@<TRIPOS>BOND
     1    1    2 1    
     2    1    6 1    
     3    1    7 2    
     4    2    3 2    
     5    2   24 1    
     6    3    4 1    
     7    3   25 1    
     8    4    5 1    
     9    4    8 2    
    10    5    6 2    
    11    5   26 1    
    12    6    9 1    
    13    9   10 1    
    14    9   27 1    
    15    9   28 1    
    16   10   11 2    
    17   10   29 1    
    18   11   12 1    
    19   11   23 1    
    20   12   13 1    
    21   12   30 1    
    22   12   31 1    
    23   13   14 1    
    24   13   32 1    
    25   13   33 1    
    26   14   15 2    
    27   14   34 1    
    28   15   16 1    
    29   15   22 1    
    30   16   17 1    
    31   16   35 1    
    32   16   36 1    
    33   17   18 1    
    34   17   37 1    
    35   17   38 1    
    36   18   19 2    
    37   18   39 1    
    38   19   20 1    
    39   19   21 1    
    40   20   40 1    
    41   20   41 1    
    42   20   42 1    
    43   21   43 1    
    44   21   44 1    
    45   21   45 1    
    46   22   46 1    
    47   22   47 1    
    48   22   48 1    
    49   23   49 1    
    50   23   50 1    
    51   23   51 1    
    52   24   52 1    
    53   24   53 1    
    54   24   54 1    
@<TRIPOS>SUBSTRUCTURE
     1 ****        1 TEMP              0 ****  ****    0 ROOT 
@<TRIPOS>NORMAL
@<TRIPOS>FF_PBC
FORCE_FIELD_SETUP_FEATURE Force Field Setup information
v1.0  0 0.000000 0.000000 0.000000 0.000000 0.000000 0.000000 NONE 0 0 0 0 1 0 0 0 0 0 0 0 0
