@<TRIPOS>MOLECULE
MOL004914
   36    39     1     1     0
SMALL
GASTEIGER


@<TRIPOS>ATOM
      1 C           5.797424    0.064124    0.346317 C.ar      1 <1>         0.077525 
      2 C           5.172344   -1.279032    0.359976 C.ar      1 <1>        -0.001114 
      3 C           3.783648   -1.427682    0.313171 C.ar      1 <1>         0.093698 
      4 C           2.926759   -0.216747    0.246865 C.ar      1 <1>         0.139858 
      5 C           3.507426    1.078639    0.226458 C.ar      1 <1>         0.107557 
      6 C           4.982148    1.209845    0.279321 C.ar      1 <1>        -0.000232 
      7 C           1.453780   -0.326734    0.200881 C.ar      1 <1>         0.382217 
      8 C           0.723968    0.816040    0.136262 C.ar      1 <1>         0.167273 
      9 C           1.386514    2.166157    0.108184 C.2       1 <1>         0.308827 
     10 O           2.721414    2.242010    0.157567 O.3       1 <1>        -0.272622 
     11 O           0.721461   -1.502254    0.218901 O.2       1 <1>        -0.202692 
     12 C          -0.586786   -1.058524    0.163491 C.ar      1 <1>         0.367225 
     13 C          -0.680395    0.403285    0.108126 C.ar      1 <1>         0.103447 
     14 C          -1.750016   -1.816877    0.157708 C.ar      1 <1>         0.075570 
     15 C          -3.070791   -1.139334    0.094849 C.ar      1 <1>         0.114582 
     16 C          -3.143588    0.287817    0.038381 C.ar      1 <1>         0.106835 
     17 C          -1.895758    1.096096    0.049419 C.ar      1 <1>        -0.011951 
     18 O          -4.205393   -1.962354    0.095413 O.3       1 <1>        -0.345033 
     19 C          -5.549555   -1.467793   -0.014156 C.3       1 <1>         0.043141 
     20 O           7.189122    0.163244    0.399600 O.3       1 <1>        -0.359667 
     21 O           3.235833   -2.713780    0.328186 O.3       1 <1>        -0.358765 
     22 O           0.704954    3.173601    0.041148 O.2       1 <1>        -0.258461 
     23 O          -4.373239    0.944006   -0.016186 O.3       1 <1>        -0.345315 
     24 C          -4.620487    1.773857   -1.164403 C.3       1 <1>         0.043136 
     25 H           5.804489   -2.158849    0.407250 H         1 <1>         0.066926 
     26 H           5.420484    2.201604    0.266910 H         1 <1>         0.066951 
     27 H          -1.696817   -2.898627    0.199479 H         1 <1>         0.073870 
     28 H          -1.918010    2.179685    0.018489 H         1 <1>         0.065325 
     29 H          -6.223541   -2.336645    0.003730 H         1 <1>         0.052871 
     30 H          -5.700858   -0.938368   -0.966390 H         1 <1>         0.052871 
     31 H          -5.810539   -0.817171    0.834151 H         1 <1>         0.052871 
     32 H           7.526252    1.051854    0.422141 H         1 <1>         0.217316 
     33 H           2.286671   -2.768649    0.326006 H         1 <1>         0.217345 
     34 H          -5.654008    2.143968   -1.092199 H         1 <1>         0.052871 
     35 H          -3.946684    2.641853   -1.201526 H         1 <1>         0.052871 
     36 H          -4.518129    1.191733   -2.093322 H         1 <1>         0.052871 
@<TRIPOS>BOND
     1    1    2 1    
     2    1    6 2    
     3    1   20 1    
     4    2    3 2    
     5    2   25 1    
     6    3    4 1    
     7    3   21 1    
     8    4    5 2    
     9    4    7 1    
    10    5    6 1    
    11    5   10 1    
    12    6   26 1    
    13    7    8 2    
    14    7   11 1    
    15    8    9 1    
    16    8   13 1    
    17    9   10 1    
    18    9   22 2    
    19   11   12 1    
    20   12   13 1    
    21   12   14 2    
    22   13   17 2    
    23   14   15 1    
    24   14   27 1    
    25   15   16 2    
    26   15   18 1    
    27   16   17 1    
    28   16   23 1    
    29   17   28 1    
    30   18   19 1    
    31   19   29 1    
    32   19   30 1    
    33   19   31 1    
    34   20   32 1    
    35   21   33 1    
    36   23   24 1    
    37   24   34 1    
    38   24   35 1    
    39   24   36 1    
@<TRIPOS>SUBSTRUCTURE
     1 ****        1 TEMP              0 ****  ****    0 ROOT 
@<TRIPOS>NORMAL
@<TRIPOS>FF_PBC
FORCE_FIELD_SETUP_FEATURE Force Field Setup information
v1.0  0 0.000000 0.000000 0.000000 0.000000 0.000000 0.000000 NONE 0 0 0 0 1 0 0 0 0 0 0 0 0
