@<TRIPOS>MOLECULE
MOL004957
   32    34     1     1     0
SMALL
GASTEIGER


@<TRIPOS>ATOM
      1 O          -6.593647    0.732848    1.565260 O.3       1 <1>        -0.359832 
      2 O           1.306975    0.516889    1.184468 O.3       1 <1>        -0.315353 
      3 O          -1.270797   -0.821675   -1.651450 O.2       1 <1>        -0.286478 
      4 O           5.259494   -0.684966   -1.535901 O.3       1 <1>        -0.347829 
      5 C          -5.232870    0.613253    1.273218 C.ar      1 <1>         0.072617 
      6 C          -4.306968    0.146164    2.330442 C.ar      1 <1>        -0.031363 
      7 C          -4.723904    0.924077    0.001907 C.ar      1 <1>        -0.031363 
      8 C          -2.395477    0.341205    0.726479 C.ar      1 <1>        -0.012138 
      9 C          -2.938482    0.013127    2.068677 C.ar      1 <1>        -0.051421 
     10 C          -3.273589    0.786504   -0.273579 C.ar      1 <1>        -0.051421 
     11 C          -0.913317    0.197001    0.446144 C.2       1 <1>         0.052566 
     12 C          -0.475677   -0.400744   -0.826437 C.2       1 <1>         0.198092 
     13 C           1.006544   -0.491631   -1.074152 C.ar      1 <1>         0.052905 
     14 C           1.871605   -0.002777    0.017045 C.ar      1 <1>         0.095577 
     15 C          -0.022388    0.613315    1.359968 C.2       1 <1>         0.058253 
     16 C           1.564953   -1.005202   -2.254254 C.ar      1 <1>        -0.045973 
     17 C           3.262196   -0.058534   -0.118593 C.ar      1 <1>        -0.000475 
     18 C           3.872207   -0.605197   -1.360562 C.ar      1 <1>         0.078313 
     19 C           3.039607   -1.057297   -2.391349 C.ar      1 <1>        -0.030857 
     20 C           6.164974   -0.359429   -0.469191 C.3       1 <1>         0.043027 
     21 H          -7.128842    1.013360    0.831682 H         1 <1>         0.217313 
     22 H          -4.701346   -0.094911    3.312127 H         1 <1>         0.064338 
     23 H          -5.381332    1.267317   -0.789633 H         1 <1>         0.064338 
     24 H          -2.278786   -0.337700    2.855770 H         1 <1>         0.062443 
     25 H          -2.899639    1.041658   -1.259408 H         1 <1>         0.062443 
     26 H          -0.347692    1.062719    2.297565 H         1 <1>         0.089749 
     27 H           0.927116   -1.361735   -3.056329 H         1 <1>         0.062621 
     28 H           3.869586    0.306256    0.699648 H         1 <1>         0.066953 
     29 H           3.482844   -1.452317   -3.298913 H         1 <1>         0.064349 
     30 H           7.187949   -0.543638   -0.829372 H         1 <1>         0.052870 
     31 H           5.984133   -0.999896    0.408098 H         1 <1>         0.052870 
     32 H           6.084368    0.702155   -0.189475 H         1 <1>         0.052870 
@<TRIPOS>BOND
     1    5    1 1    
     2    1   21 1    
     3   14    2 1    
     4    2   15 1    
     5   12    3 2    
     6   18    4 1    
     7    4   20 1    
     8    6    5 1    
     9    7    5 2    
    10    9    6 2    
    11    6   22 1    
    12   10    7 1    
    13    7   23 1    
    14    8    9 1    
    15    8   10 2    
    16   11    8 1    
    17    9   24 1    
    18   10   25 1    
    19   12   11 1    
    20   15   11 2    
    21   13   12 1    
    22   14   13 1    
    23   13   16 2    
    24   17   14 2    
    25   15   26 1    
    26   16   19 1    
    27   16   27 1    
    28   17   18 1    
    29   17   28 1    
    30   18   19 2    
    31   19   29 1    
    32   20   30 1    
    33   20   31 1    
    34   20   32 1    
@<TRIPOS>SUBSTRUCTURE
     1 ****        1 TEMP              0 ****  ****    0 ROOT 
@<TRIPOS>NORMAL
@<TRIPOS>FF_PBC
FORCE_FIELD_SETUP_FEATURE Force Field Setup information
v1.0  0 0.000000 0.000000 0.000000 0.000000 0.000000 0.000000 NONE 0 0 0 0 1 0 0 0 0 0 0 0 0
