@<TRIPOS>MOLECULE
MOL012956
   80    81     1     1     0
SMALL
GASTEIGER


@<TRIPOS>ATOM
      1 O          -2.068983    3.629717   -0.240718 O.3       1 <1>        -0.338898 
      2 O           1.569162    0.962472    1.619225 O.2       1 <1>        -0.274066 
      3 O          -2.112586    0.364573   -1.256106 O.2       1 <1>        -0.273666 
      4 O          -3.214013   -3.354726    1.195911 O.2       1 <1>        -0.273447 
      5 N           0.893409    1.333699   -0.492276 N.am      1 <1>        -0.300544 
      6 N           4.271262    1.205066    0.962107 N.3       1 <1>        -0.297428 
      7 N          -1.010953   -0.760448    0.345131 N.am      1 <1>        -0.302380 
      8 N          -3.917461   -1.374747    0.427537 N.am      1 <1>        -0.290416 
      9 C          -0.486528    1.647799   -0.098747 C.3       1 <1>         0.126456 
     10 C          -0.965520    2.937018   -0.864756 C.3       1 <1>         0.094269 
     11 C           3.256229    0.713195   -0.020713 C.3       1 <1>         0.089340 
     12 C           3.367113   -0.816051   -0.327891 C.3       1 <1>        -0.020006 
     13 C           0.134440    4.042363   -0.981566 C.3       1 <1>        -0.017648 
     14 C           1.835379    1.015770    0.429379 C.2       1 <1>         0.231161 
     15 C           3.128433   -1.648553    0.969452 C.3       1 <1>        -0.051437 
     16 C          -1.270487    0.368543   -0.373244 C.2       1 <1>         0.236530 
     17 C          -1.597798   -2.071304   -0.022338 C.3       1 <1>         0.099947 
     18 C           2.417743   -1.235776   -1.489102 C.3       1 <1>        -0.060544 
     19 C          -0.604310   -3.219293    0.335955 C.3       1 <1>        -0.023619 
     20 C           0.530355    4.603930    0.413029 C.3       1 <1>        -0.060225 
     21 C          -0.353301    5.206063   -1.892573 C.3       1 <1>        -0.060225 
     22 C          -0.881867   -4.603096   -0.335482 C.3       1 <1>        -0.044591 
     23 C           3.535370   -3.140292    0.833388 C.3       1 <1>        -0.064973 
     24 C           4.167454    2.660962    1.246104 C.3       1 <1>        -0.012325 
     25 C           5.682624    0.801369    0.717317 C.3       1 <1>        -0.012325 
     26 C          -2.975451   -2.326052    0.583901 C.2       1 <1>         0.237115 
     27 C          -3.180326    2.856556    0.048570 C.ar      1 <1>         0.076681 
     28 C          -0.575777   -4.599840   -1.862147 C.3       1 <1>        -0.062595 
     29 C          -0.019295   -5.698622    0.354116 C.3       1 <1>        -0.062595 
     30 C          -3.409819    2.478532    1.371281 C.ar      1 <1>        -0.031108 
     31 C          -4.100410    2.435385   -1.034564 C.ar      1 <1>        -0.031108 
     32 C          -5.201669    0.946862    0.605263 C.ar      1 <1>        -0.023697 
     33 C          -4.460062    1.483703    1.668432 C.ar      1 <1>        -0.052116 
     34 C          -5.115100    1.513431   -0.759720 C.ar      1 <1>        -0.052116 
     35 C          -5.213038   -1.427493    0.851505 C.2       1 <1>        -0.003130 
     36 C          -5.969510   -0.317723    0.895539 C.2       1 <1>        -0.040693 
     37 H          -0.578239    1.866303    0.975820 H         1 <1>         0.062102 
     38 H          -1.246582    2.637795   -1.887894 H         1 <1>         0.062716 
     39 H           3.449710    1.264410   -0.955534 H         1 <1>         0.056095 
     40 H           4.381030   -1.026535   -0.703311 H         1 <1>         0.031782 
     41 H           1.043837    3.642461   -1.458481 H         1 <1>         0.032124 
     42 H           1.100142    1.312427   -1.471890 H         1 <1>         0.149577 
     43 H           3.721754   -1.218117    1.792036 H         1 <1>         0.026581 
     44 H           2.071362   -1.590473    1.267958 H         1 <1>         0.026581 
     45 H          -1.738543   -2.086595   -1.112250 H         1 <1>         0.059460 
     46 H           2.590101   -2.279063   -1.791433 H         1 <1>         0.023302 
     47 H           2.598054   -0.606448   -2.374557 H         1 <1>         0.023302 
     48 H           1.362667   -1.133104   -1.202721 H         1 <1>         0.023302 
     49 H           0.409896   -2.923610    0.040581 H         1 <1>         0.029028 
     50 H          -0.608238   -3.318880    1.433472 H         1 <1>         0.029028 
     51 H           1.334555    5.349493    0.311664 H         1 <1>         0.023314 
     52 H           0.890997    3.802818    1.071659 H         1 <1>         0.023314 
     53 H          -0.330287    5.088712    0.898619 H         1 <1>         0.023314 
     54 H           0.433150    5.970010   -1.997607 H         1 <1>         0.023314 
     55 H          -0.602420    4.831572   -2.897625 H         1 <1>         0.023314 
     56 H          -1.247648    5.688798   -1.469864 H         1 <1>         0.023314 
     57 H          -0.379774   -0.718264    1.122299 H         1 <1>         0.149508 
     58 H          -1.938460   -4.887077   -0.201936 H         1 <1>         0.029618 
     59 H           2.920970   -3.663449    0.087891 H         1 <1>         0.022987 
     60 H           3.402177   -3.652355    1.799716 H         1 <1>         0.022987 
     61 H           4.593402   -3.223114    0.540276 H         1 <1>         0.022987 
     62 H           4.811269    2.938167    2.094864 H         1 <1>         0.039072 
     63 H           4.473144    3.248525    0.366208 H         1 <1>         0.039072 
     64 H           3.147833    2.957122    1.523114 H         1 <1>         0.039072 
     65 H           5.965247    0.994145   -0.329283 H         1 <1>         0.039072 
     66 H           6.387973    1.345595    1.364115 H         1 <1>         0.039072 
     67 H           5.830719   -0.264733    0.939921 H         1 <1>         0.039072 
     68 H          -0.712307   -5.609910   -2.279102 H         1 <1>         0.023234 
     69 H          -1.245598   -3.926541   -2.414910 H         1 <1>         0.023234 
     70 H           0.464160   -4.290054   -2.047688 H         1 <1>         0.023234 
     71 H          -0.251492   -5.756744    1.428998 H         1 <1>         0.023234 
     72 H          -0.217020   -6.687271   -0.088896 H         1 <1>         0.023234 
     73 H           1.051768   -5.474133    0.239511 H         1 <1>         0.023234 
     74 H          -3.574224   -0.576619   -0.060870 H         1 <1>         0.154295 
     75 H          -2.786482    2.871189    2.166676 H         1 <1>         0.064346 
     76 H          -3.985046    2.850147   -2.029633 H         1 <1>         0.064346 
     77 H          -4.596000    1.122211    2.682451 H         1 <1>         0.062423 
     78 H          -5.814367    1.204210   -1.528931 H         1 <1>         0.062423 
     79 H          -5.645765   -2.377390    1.170056 H         1 <1>         0.078217 
     80 H          -7.025729   -0.305230    1.162616 H         1 <1>         0.063587 
@<TRIPOS>BOND
     1   10    1 1    
     2    1   27 1    
     3   14    2 2    
     4   16    3 2    
     5   26    4 2    
     6    9    5 1    
     7    5   14 1    
     8    5   42 1    
     9   11    6 1    
    10    6   24 1    
    11    6   25 1    
    12    7   16 1    
    13   17    7 1    
    14    7   57 1    
    15   26    8 1    
    16    8   35 1    
    17    8   74 1    
    18    9   10 1    
    19   16    9 1    
    20    9   37 1    
    21   10   13 1    
    22   10   38 1    
    23   11   12 1    
    24   14   11 1    
    25   11   39 1    
    26   12   15 1    
    27   12   18 1    
    28   12   40 1    
    29   13   20 1    
    30   13   21 1    
    31   13   41 1    
    32   15   23 1    
    33   15   43 1    
    34   15   44 1    
    35   17   19 1    
    36   17   26 1    
    37   17   45 1    
    38   18   46 1    
    39   18   47 1    
    40   18   48 1    
    41   19   22 1    
    42   19   49 1    
    43   19   50 1    
    44   20   51 1    
    45   20   52 1    
    46   20   53 1    
    47   21   54 1    
    48   21   55 1    
    49   21   56 1    
    50   22   28 1    
    51   22   29 1    
    52   22   58 1    
    53   23   59 1    
    54   23   60 1    
    55   23   61 1    
    56   24   62 1    
    57   24   63 1    
    58   24   64 1    
    59   25   65 1    
    60   25   66 1    
    61   25   67 1    
    62   27   30 2    
    63   27   31 1    
    64   28   68 1    
    65   28   69 1    
    66   28   70 1    
    67   29   71 1    
    68   29   72 1    
    69   29   73 1    
    70   30   33 1    
    71   30   75 1    
    72   31   34 2    
    73   31   76 1    
    74   33   32 2    
    75   32   34 1    
    76   32   36 1    
    77   33   77 1    
    78   34   78 1    
    79   35   36 2    
    80   35   79 1    
    81   36   80 1    
@<TRIPOS>SUBSTRUCTURE
     1 ****        6 TEMP              0 ****  ****    0 ROOT 
@<TRIPOS>NORMAL
@<TRIPOS>FF_PBC
FORCE_FIELD_SETUP_FEATURE Force Field Setup information
v1.0  0 0.000000 0.000000 0.000000 0.000000 0.000000 0.000000 NONE 0 0 0 0 1 0 0 0 0 0 0 0 0
