@<TRIPOS>MOLECULE
MOL005013
   81    85     1     1     0
SMALL
GASTEIGER


@<TRIPOS>ATOM
      1 C           1.382833    0.651819    2.682064 C.3       1 <1>        -0.005149 
      2 C           1.494404    2.377617    2.182599 C.3       1 <1>         0.094226 
      3 C           2.996683    2.807501    1.188193 C.3       1 <1>         0.000699 
      4 C           3.810832    1.666594   -0.076227 C.3       1 <1>        -0.043736 
      5 C           3.477341   -0.069575    0.338009 C.3       1 <1>        -0.037890 
      6 C           2.385453   -0.573677    1.784035 C.3       1 <1>         0.056078 
      7 C           0.623881    1.944241    1.242993 C.2       1 <1>        -0.028163 
      8 C           1.645535    1.218865    0.500569 C.3       1 <1>        -0.001917 
      9 C           1.546574   -1.880631    1.983461 C.2       1 <1>         0.265646 
     10 C           3.421124   -1.261332    2.815367 C.3       1 <1>        -0.050395 
     11 O           1.808452   -2.989000    1.525743 O.2       1 <1>        -0.264566 
     12 O           0.514318   -1.842293    2.833495 O.3       1 <1>        -0.330856 
     13 C           3.359527    1.423582    1.975377 C.3       1 <1>        -0.042703 
     14 C           3.963809    2.794278    2.297008 C.3       1 <1>        -0.043895 
     15 C           3.017505    4.356975    0.851929 C.3       1 <1>        -0.056630 
     16 O           1.015117    3.318468    3.154572 O.3       1 <1>        -0.383672 
     17 C          -0.691929    2.124167    1.263971 C.2       1 <1>        -0.016410 
     18 C          -1.401889    1.238942    0.384718 C.2       1 <1>         0.160280 
     19 C          -0.856241   -0.183114    0.289198 C.3       1 <1>         0.033334 
     20 C           0.656573   -0.031202   -0.302992 C.3       1 <1>        -0.012573 
     21 C          -1.996081   -1.205428   -0.220946 C.3       1 <1>        -0.018250 
     22 C          -2.299408   -0.905738   -1.721996 C.3       1 <1>        -0.027446 
     23 C          -0.948972   -0.831437   -2.478098 C.3       1 <1>        -0.048587 
     24 C           0.039868    0.207638   -1.806487 C.3       1 <1>        -0.045875 
     25 C          -3.378310   -0.999678    0.503825 C.3       1 <1>        -0.044330 
     26 C          -4.538910   -1.917019   -0.023014 C.3       1 <1>        -0.025820 
     27 C          -4.310603   -2.552320   -1.430589 C.3       1 <1>         0.060638 
     28 C          -3.551876   -1.594385   -2.411341 C.3       1 <1>        -0.005578 
     29 C           1.453492    2.257524   -0.760432 C.3       1 <1>        -0.055218 
     30 O          -2.365831    1.730335   -0.182282 O.2       1 <1>        -0.292346 
     31 C           1.303882   -1.438063   -0.772123 C.3       1 <1>        -0.058098 
     32 C          -1.645539   -2.711121    0.088412 C.3       1 <1>        -0.058618 
     33 C          -4.596915   -0.511987   -2.868073 C.3       1 <1>        -0.057190 
     34 O          -3.717369   -3.859716   -1.285559 O.3       1 <1>        -0.391248 
     35 C          -3.173413   -2.366361   -3.715766 C.3       1 <1>        -0.057190 
     36 H           1.620305    0.582322    3.761081 H         1 <1>         0.030642 
     37 H           0.334865    0.383551    2.880497 H         1 <1>         0.030642 
     38 H           3.837355    1.933135   -1.143003 H         1 <1>         0.027180 
     39 H           4.904367    1.793950    0.033400 H         1 <1>         0.027180 
     40 H           4.424923   -0.620154    0.467509 H         1 <1>         0.027552 
     41 H           3.304548   -0.254346   -0.724035 H         1 <1>         0.027552 
     42 H           2.970185   -1.511796    3.795285 H         1 <1>         0.023987 
     43 H           3.868054   -2.181040    2.395626 H         1 <1>         0.023987 
     44 H           4.334141   -0.752060    3.132174 H         1 <1>         0.023987 
     45 H           0.107863   -2.686523    3.002275 H         1 <1>         0.220226 
     46 H           4.404632    1.003584    1.988944 H         1 <1>         0.027394 
     47 H           3.432797    1.257038    3.076444 H         1 <1>         0.027394 
     48 H           4.982498    3.094653    1.973324 H         1 <1>         0.027178 
     49 H           3.645267    3.372595    3.194220 H         1 <1>         0.027178 
     50 H           3.730357    4.531471    0.030340 H         1 <1>         0.023606 
     51 H           3.316717    5.031845    1.672042 H         1 <1>         0.023606 
     52 H           2.027250    4.749079    0.571488 H         1 <1>         0.023606 
     53 H           0.891500    4.179026    2.771496 H         1 <1>         0.210628 
     54 H          -1.220196    2.812934    1.922488 H         1 <1>         0.065300 
     55 H          -0.793571   -0.528703    1.315877 H         1 <1>         0.039170 
     56 H          -2.600429    0.141335   -1.749880 H         1 <1>         0.031221 
     57 H          -1.165730   -0.479503   -3.504133 H         1 <1>         0.026846 
     58 H          -0.534441   -1.838417   -2.612140 H         1 <1>         0.026846 
     59 H           0.786884    0.259303   -2.618175 H         1 <1>         0.027107 
     60 H          -0.553711    1.118600   -1.940189 H         1 <1>         0.027107 
     61 H          -3.251902   -1.152474    1.589154 H         1 <1>         0.027160 
     62 H          -3.752721    0.024588    0.393795 H         1 <1>         0.027160 
     63 H          -5.479760   -1.337650   -0.037700 H         1 <1>         0.029038 
     64 H          -4.728561   -2.744184    0.682293 H         1 <1>         0.029038 
     65 H          -5.313538   -2.779780   -1.840248 H         1 <1>         0.059852 
     66 H           1.795292    1.823519   -1.694705 H         1 <1>         0.023830 
     67 H           0.451712    2.674685   -0.943464 H         1 <1>         0.023830 
     68 H           1.987850    3.185415   -0.892060 H         1 <1>         0.023830 
     69 H           2.146140   -1.921894   -0.305763 H         1 <1>         0.023553 
     70 H           1.705643   -1.485277   -1.796898 H         1 <1>         0.023553 
     71 H           0.593750   -2.242749   -0.742620 H         1 <1>         0.023553 
     72 H          -0.831219   -2.809662    0.811924 H         1 <1>         0.023535 
     73 H          -2.438878   -3.281004    0.586887 H         1 <1>         0.023535 
     74 H          -1.388899   -3.269004   -0.823496 H         1 <1>         0.023535 
     75 H          -5.456074   -0.964573   -3.387394 H         1 <1>         0.023587 
     76 H          -4.140009    0.210770   -3.562776 H         1 <1>         0.023587 
     77 H          -4.987430    0.053892   -2.008485 H         1 <1>         0.023587 
     78 H          -3.674709   -4.386627   -2.076284 H         1 <1>         0.209800 
     79 H          -2.345171   -3.068624   -3.548519 H         1 <1>         0.023587 
     80 H          -4.036383   -2.941774   -4.086869 H         1 <1>         0.023587 
     81 H          -2.881480   -1.680702   -4.525454 H         1 <1>         0.023587 
@<TRIPOS>BOND
     1    1    2 1    
     2    1    6 1    
     3    1   36 1    
     4    1   37 1    
     5    2    3 1    
     6    2    7 1    
     7    2   16 1    
     8    3    4 1    
     9    3   14 1    
    10    3   15 1    
    11    4    5 1    
    12    4   38 1    
    13    4   39 1    
    14    5    6 1    
    15    5   40 1    
    16    5   41 1    
    17    6    9 1    
    18    6   10 1    
    19    7    8 1    
    20    7   17 2    
    21    8   13 1    
    22    8   20 1    
    23    8   29 1    
    24    9   11 2    
    25    9   12 1    
    26   10   42 1    
    27   10   43 1    
    28   10   44 1    
    29   12   45 1    
    30   13   14 1    
    31   13   46 1    
    32   13   47 1    
    33   14   48 1    
    34   14   49 1    
    35   15   50 1    
    36   15   51 1    
    37   15   52 1    
    38   16   53 1    
    39   17   18 1    
    40   17   54 1    
    41   18   19 1    
    42   18   30 2    
    43   19   20 1    
    44   19   21 1    
    45   19   55 1    
    46   20   24 1    
    47   20   31 1    
    48   21   22 1    
    49   21   25 1    
    50   21   32 1    
    51   22   23 1    
    52   22   28 1    
    53   22   56 1    
    54   23   24 1    
    55   23   57 1    
    56   23   58 1    
    57   24   59 1    
    58   24   60 1    
    59   25   26 1    
    60   25   61 1    
    61   25   62 1    
    62   26   27 1    
    63   26   63 1    
    64   26   64 1    
    65   27   28 1    
    66   27   34 1    
    67   27   65 1    
    68   28   33 1    
    69   28   35 1    
    70   29   66 1    
    71   29   67 1    
    72   29   68 1    
    73   31   69 1    
    74   31   70 1    
    75   31   71 1    
    76   32   72 1    
    77   32   73 1    
    78   32   74 1    
    79   33   75 1    
    80   33   76 1    
    81   33   77 1    
    82   34   78 1    
    83   35   79 1    
    84   35   80 1    
    85   35   81 1    
@<TRIPOS>SUBSTRUCTURE
     1 ****        1 TEMP              0 ****  ****    0 ROOT 
@<TRIPOS>NORMAL
@<TRIPOS>FF_PBC
FORCE_FIELD_SETUP_FEATURE Force Field Setup information
v1.0  0 0.000000 0.000000 0.000000 0.000000 0.000000 0.000000 NONE 0 0 0 0 1 0 0 0 0 0 0 0 0
