@<TRIPOS>MOLECULE
MOL004697
  129   135     1     1     0
SMALL
GASTEIGER


@<TRIPOS>ATOM
      1 O           2.485362   -4.732571   -0.689350 O.3       1 <1>        -0.340520 
      2 C           1.682625   -5.801116   -0.152219 C.3       1 <1>         0.188437 
      3 C           1.776240   -7.050036   -1.078605 C.3       1 <1>         0.134124 
      4 C           1.309511   -6.691507   -2.513080 C.3       1 <1>         0.114061 
      5 C           2.141584   -5.482877   -3.021446 C.3       1 <1>         0.111896 
      6 C           2.097455   -4.303818   -2.012740 C.3       1 <1>         0.113005 
      7 O           0.377146   -5.243615    0.134665 O.3       1 <1>        -0.340053 
      8 C          -0.632187   -6.149567    0.643623 C.3       1 <1>         0.120486 
      9 C          -1.959546   -5.369292    0.832529 C.3       1 <1>         0.134483 
     10 C          -1.949265   -4.490369    2.119792 C.3       1 <1>         0.188127 
     11 O          -1.542145   -5.218658    3.295103 O.3       1 <1>        -0.343072 
     12 C          -0.291359   -5.921710    3.171812 C.3       1 <1>         0.087317 
     13 C          -0.330942   -6.903955    1.969030 C.3       1 <1>         0.109842 
     14 O           3.149763   -7.505440   -1.097176 O.3       1 <1>        -0.384104 
     15 O          -0.110987   -6.449598   -2.525003 O.3       1 <1>        -0.386401 
     16 O           3.509255   -5.878119   -3.245186 O.3       1 <1>        -0.386488 
     17 C           0.775400   -3.494373   -2.062667 C.3       1 <1>         0.073015 
     18 O           0.650047   -2.872320   -3.356968 O.3       1 <1>        -0.392366 
     19 O          -3.025953   -6.347699    0.863923 O.3       1 <1>        -0.384094 
     20 O          -1.240797   -3.244314    1.913341 O.3       1 <1>        -0.344807 
     21 C          -1.366361   -2.241766    2.960881 C.3       1 <1>         0.069510 
     22 C          -2.535313   -1.177603    2.879289 C.3       1 <1>         0.020633 
     23 C          -2.122499    0.131421    2.054167 C.3       1 <1>        -0.025395 
     24 C          -1.012251   -0.028199    0.946178 C.3       1 <1>        -0.022510 
     25 C          -0.487584    1.400738    0.449414 C.3       1 <1>         0.000719 
     26 C          -1.344913    2.710113    0.616299 C.3       1 <1>        -0.016923 
     27 C          -2.087652    2.693773    2.002812 C.3       1 <1>        -0.046183 
     28 C          -1.801643    1.431000    2.865613 C.3       1 <1>        -0.048525 
     29 C          -0.033627   -1.458090    2.940175 C.3       1 <1>        -0.025384 
     30 C           0.206249   -0.855147    1.531969 C.3       1 <1>        -0.044626 
     31 C           0.172968    1.379558   -0.959269 C.3       1 <1>         0.080545 
     32 C           0.661450    2.736191   -1.413544 C.2       1 <1>        -0.055289 
     33 C           0.474499    3.905481   -0.778339 C.2       1 <1>        -0.060744 
     34 C          -0.375427    3.984232    0.490914 C.3       1 <1>        -0.002626 
     35 C          -1.206466    5.320893    0.516818 C.3       1 <1>        -0.016608 
     36 C          -0.509640    6.601021   -0.021495 C.3       1 <1>         0.064286 
     37 C           0.147515    6.381644   -1.427244 C.3       1 <1>         0.026310 
     38 C           0.915933    7.689866   -1.822871 C.3       1 <1>        -0.041883 
     39 C           1.927166    7.545159   -2.994192 C.3       1 <1>        -0.047178 
     40 C           2.931397    6.377107   -2.781841 C.3       1 <1>        -0.034297 
     41 C           2.131498    5.077224   -2.457944 C.3       1 <1>        -0.040647 
     42 C           1.147819    5.198485   -1.252501 C.3       1 <1>        -0.008707 
     43 C           0.945359   -4.990973    3.190519 C.3       1 <1>        -0.036060 
     44 O           0.859007   -7.711383    1.866190 O.3       1 <1>        -0.386569 
     45 C          -2.933645   -0.832512    4.360658 C.3       1 <1>         0.052209 
     46 O          -4.090693    0.028265    4.401472 O.3       1 <1>        -0.394374 
     47 C          -3.862646   -1.787827    2.300566 C.3       1 <1>        -0.054821 
     48 C          -1.605555   -0.878271   -0.235608 C.3       1 <1>        -0.058926 
     49 C          -2.442916    2.706142   -0.508215 C.3       1 <1>        -0.058408 
     50 O           1.234505    0.397196   -0.874117 O.3       1 <1>        -0.375443 
     51 C           1.910868    0.082324   -2.107602 C.3       1 <1>         0.037218 
     52 C           0.711243    4.054866    1.632389 C.3       1 <1>        -0.055240 
     53 O          -1.524035    7.627685   -0.034377 O.3       1 <1>        -0.391114 
     54 C          -0.959166    6.055907   -2.484078 C.3       1 <1>         0.052730 
     55 O          -0.476329    5.989737   -3.836693 O.3       1 <1>        -0.394355 
     56 C           3.731075    6.155276   -4.104245 C.3       1 <1>        -0.059793 
     57 C           3.971871    6.722412   -1.668426 C.3       1 <1>        -0.059793 
     58 H           2.184172   -6.055880    0.791100 H         1 <1>         0.093753 
     59 H           1.159712   -7.870183   -0.677704 H         1 <1>         0.067095 
     60 H           1.513994   -7.554402   -3.171139 H         1 <1>         0.064758 
     61 H           1.754282   -5.154082   -3.999387 H         1 <1>         0.064673 
     62 H           2.882195   -3.592993   -2.320593 H         1 <1>         0.064668 
     63 H          -0.846668   -6.891908   -0.140110 H         1 <1>         0.065136 
     64 H          -2.102785   -4.713008   -0.043964 H         1 <1>         0.067105 
     65 H          -3.000218   -4.274538    2.319511 H         1 <1>         0.093748 
     66 H          -0.227673   -6.528530    4.091421 H         1 <1>         0.062075 
     67 H          -1.181279   -7.588844    2.145263 H         1 <1>         0.064594 
     68 H           3.275502   -8.324097   -1.570182 H         1 <1>         0.210110 
     69 H          -0.454100   -6.255889   -3.392534 H         1 <1>         0.210005 
     70 H           3.940098   -6.132751   -2.432761 H         1 <1>         0.210004 
     71 H          -0.110320   -4.115770   -1.875019 H         1 <1>         0.058370 
     72 H           0.837389   -2.732084   -1.272807 H         1 <1>         0.058370 
     73 H          -0.138155   -2.342976   -3.440645 H         1 <1>         0.209508 
     74 H          -3.900858   -5.972052    0.888288 H         1 <1>         0.210111 
     75 H          -1.377504   -2.783728    3.922171 H         1 <1>         0.060308 
     76 H          -3.035098    0.421261    1.515974 H         1 <1>         0.031292 
     77 H           0.339403    1.626350    1.121704 H         1 <1>         0.033983 
     78 H          -3.180795    2.737519    1.862385 H         1 <1>         0.027097 
     79 H          -1.873941    3.573144    2.623321 H         1 <1>         0.027097 
     80 H          -2.439595    1.575706    3.746739 H         1 <1>         0.026847 
     81 H          -0.762702    1.445829    3.223161 H         1 <1>         0.026847 
     82 H           0.809725   -2.123274    3.178492 H         1 <1>         0.029048 
     83 H          -0.024580   -0.682383    3.717567 H         1 <1>         0.029048 
     84 H           0.459289   -1.695648    0.868797 H         1 <1>         0.027150 
     85 H           1.152597   -0.300704    1.626824 H         1 <1>         0.027150 
     86 H          -0.564180    1.080352   -1.718585 H         1 <1>         0.064325 
     87 H           1.206673    2.699478   -2.348338 H         1 <1>         0.059746 
     88 H          -1.533205    5.550545    1.541947 H         1 <1>         0.029875 
     89 H          -2.117596    5.261398   -0.080503 H         1 <1>         0.029875 
     90 H           0.253258    6.914336    0.711366 H         1 <1>         0.059982 
     91 H           0.195758    8.470653   -2.114998 H         1 <1>         0.027247 
     92 H           1.470645    8.075917   -0.954643 H         1 <1>         0.027247 
     93 H           2.487347    8.488708   -3.104757 H         1 <1>         0.027063 
     94 H           1.385459    7.400586   -3.938942 H         1 <1>         0.027063 
     95 H           1.563039    4.781230   -3.350957 H         1 <1>         0.027632 
     96 H           2.877006    4.291831   -2.250887 H         1 <1>         0.027632 
     97 H           1.814304    5.452476   -0.419037 H         1 <1>         0.035287 
     98 H           0.906400   -4.364823    4.094417 H         1 <1>         0.025536 
     99 H           1.871217   -5.584772    3.226277 H         1 <1>         0.025536 
    100 H           0.981893   -4.341230    2.308476 H         1 <1>         0.025536 
    101 H           1.040576   -8.222859    2.649088 H         1 <1>         0.210002 
    102 H          -3.209602   -1.750247    4.909656 H         1 <1>         0.056334 
    103 H          -2.086631   -0.389042    4.908429 H         1 <1>         0.056334 
    104 H          -4.368071    0.256970    5.284157 H         1 <1>         0.209420 
    105 H          -3.738421   -2.221000    1.302012 H         1 <1>         0.023667 
    106 H          -4.652057   -1.024963    2.217302 H         1 <1>         0.023667 
    107 H          -4.281387   -2.560328    2.961165 H         1 <1>         0.023667 
    108 H          -0.878984   -1.042580   -1.039565 H         1 <1>         0.023526 
    109 H          -2.505310   -0.446325   -0.686290 H         1 <1>         0.023526 
    110 H          -1.874904   -1.883810    0.091680 H         1 <1>         0.023526 
    111 H          -3.258240    3.424249   -0.347960 H         1 <1>         0.023543 
    112 H          -2.027132    2.907292   -1.502867 H         1 <1>         0.023543 
    113 H          -2.946724    1.737972   -0.550493 H         1 <1>         0.023543 
    114 H           2.525183   -0.809098   -1.914717 H         1 <1>         0.052375 
    115 H           2.592511    0.882528   -2.428359 H         1 <1>         0.052375 
    116 H           1.206848   -0.154552   -2.919282 H         1 <1>         0.052375 
    117 H           1.067950    5.076789    1.808225 H         1 <1>         0.023830 
    118 H           0.353724    3.698388    2.605085 H         1 <1>         0.023830 
    119 H           1.612912    3.467143    1.395591 H         1 <1>         0.023830 
    120 H          -1.202711    8.503454   -0.220160 H         1 <1>         0.209802 
    121 H          -1.422780    5.084764   -2.267600 H         1 <1>         0.056353 
    122 H          -1.741448    6.831510   -2.431749 H         1 <1>         0.056353 
    123 H          -1.153226    5.804060   -4.481589 H         1 <1>         0.209421 
    124 H           3.061322    5.895761   -4.938660 H         1 <1>         0.023499 
    125 H           4.457870    5.336745   -3.986503 H         1 <1>         0.023499 
    126 H           4.281025    7.066834   -4.384698 H         1 <1>         0.023499 
    127 H           4.662326    5.878569   -1.517575 H         1 <1>         0.023499 
    128 H           4.569742    7.596980   -1.967300 H         1 <1>         0.023499 
    129 H           3.519466    6.959587   -0.697815 H         1 <1>         0.023499 
@<TRIPOS>BOND
     1    1    2 1    
     2    1    6 1    
     3    2    3 1    
     4    2    7 1    
     5    2   58 1    
     6    3    4 1    
     7    3   14 1    
     8    3   59 1    
     9    4    5 1    
    10    4   15 1    
    11    4   60 1    
    12    5    6 1    
    13    5   16 1    
    14    5   61 1    
    15    6   17 1    
    16    6   62 1    
    17    7    8 1    
    18    8    9 1    
    19    8   13 1    
    20    8   63 1    
    21    9   10 1    
    22    9   19 1    
    23    9   64 1    
    24   10   11 1    
    25   10   20 1    
    26   10   65 1    
    27   11   12 1    
    28   12   13 1    
    29   12   43 1    
    30   12   66 1    
    31   13   44 1    
    32   13   67 1    
    33   14   68 1    
    34   15   69 1    
    35   16   70 1    
    36   17   18 1    
    37   17   71 1    
    38   17   72 1    
    39   18   73 1    
    40   19   74 1    
    41   20   21 1    
    42   21   22 1    
    43   21   29 1    
    44   21   75 1    
    45   22   23 1    
    46   22   45 1    
    47   22   47 1    
    48   23   24 1    
    49   23   28 1    
    50   23   76 1    
    51   24   25 1    
    52   24   30 1    
    53   24   48 1    
    54   25   26 1    
    55   25   31 1    
    56   25   77 1    
    57   26   27 1    
    58   26   34 1    
    59   26   49 1    
    60   27   28 1    
    61   27   78 1    
    62   27   79 1    
    63   28   80 1    
    64   28   81 1    
    65   29   30 1    
    66   29   82 1    
    67   29   83 1    
    68   30   84 1    
    69   30   85 1    
    70   31   32 1    
    71   31   50 1    
    72   31   86 1    
    73   32   33 2    
    74   32   87 1    
    75   33   34 1    
    76   33   42 1    
    77   34   35 1    
    78   34   52 1    
    79   35   36 1    
    80   35   88 1    
    81   35   89 1    
    82   36   37 1    
    83   36   53 1    
    84   36   90 1    
    85   37   38 1    
    86   37   42 1    
    87   37   54 1    
    88   38   39 1    
    89   38   91 1    
    90   38   92 1    
    91   39   40 1    
    92   39   93 1    
    93   39   94 1    
    94   40   41 1    
    95   40   56 1    
    96   40   57 1    
    97   41   42 1    
    98   41   95 1    
    99   41   96 1    
   100   42   97 1    
   101   43   98 1    
   102   43   99 1    
   103   43  100 1    
   104   44  101 1    
   105   45   46 1    
   106   45  102 1    
   107   45  103 1    
   108   46  104 1    
   109   47  105 1    
   110   47  106 1    
   111   47  107 1    
   112   48  108 1    
   113   48  109 1    
   114   48  110 1    
   115   49  111 1    
   116   49  112 1    
   117   49  113 1    
   118   50   51 1    
   119   51  114 1    
   120   51  115 1    
   121   51  116 1    
   122   52  117 1    
   123   52  118 1    
   124   52  119 1    
   125   53  120 1    
   126   54   55 1    
   127   54  121 1    
   128   54  122 1    
   129   55  123 1    
   130   56  124 1    
   131   56  125 1    
   132   56  126 1    
   133   57  127 1    
   134   57  128 1    
   135   57  129 1    
@<TRIPOS>SUBSTRUCTURE
     1 ****        1 TEMP              0 ****  ****    0 ROOT 
@<TRIPOS>NORMAL
@<TRIPOS>FF_PBC
FORCE_FIELD_SETUP_FEATURE Force Field Setup information
v1.0  0 0.000000 0.000000 0.000000 0.000000 0.000000 0.000000 NONE 0 0 0 0 1 0 0 0 0 0 0 0 0
