@<TRIPOS>MOLECULE
MOL002248
   54    56     1     1     0
SMALL
GASTEIGER


@<TRIPOS>ATOM
      1 C           1.026662   -2.768195   -1.597612 C.ar      1 <1>         0.051495 
      2 C           1.593315   -3.870526   -2.413856 C.ar      1 <1>        -0.016369 
      3 C           1.895398   -3.677983   -3.716310 C.ar      1 <1>         0.105520 
      4 C           1.667314   -2.351080   -4.343636 C.ar      1 <1>         0.132457 
      5 C           1.149281   -1.326769   -3.600538 C.ar      1 <1>         0.105520 
      6 C           0.814901   -1.550553   -2.170222 C.ar      1 <1>        -0.016369 
      7 O           2.421504   -4.733573   -4.462836 O.3       1 <1>        -0.357199 
      8 O           1.989598   -2.168082   -5.692977 O.3       1 <1>        -0.355395 
      9 O           0.944751   -0.081293   -4.202900 O.3       1 <1>        -0.357199 
     10 C           0.695806   -3.005535   -0.140348 C.2       1 <1>         0.294052 
     11 O          -0.121240   -2.155548    0.502572 O.3       1 <1>        -0.308753 
     12 O           1.182959   -3.974399    0.421188 O.2       1 <1>        -0.259223 
     13 C          -0.222384   -2.381294    1.922339 C.3       1 <1>         0.086172 
     14 C          -1.244762   -1.437034    2.627576 C.3       1 <1>         0.113873 
     15 C          -2.729858   -1.890635    2.503602 C.3       1 <1>         0.111923 
     16 C          -3.343364   -1.474501    1.141979 C.3       1 <1>         0.114074 
     17 C          -3.156456    0.050815    0.985898 C.3       1 <1>         0.134512 
     18 C          -1.644549    0.383508    1.061204 C.3       1 <1>         0.193863 
     19 O          -1.070742   -0.031791    2.323394 O.3       1 <1>        -0.340138 
     20 O          -1.574104    1.815920    0.994478 O.3       1 <1>        -0.307408 
     21 C          -0.394702    2.576426    1.006469 C.ar      1 <1>         0.138629 
     22 C          -0.521611    4.056389    1.016698 C.ar      1 <1>         0.105873 
     23 C           0.596750    4.842434    1.014342 C.ar      1 <1>        -0.016366 
     24 C           1.951004    4.236752    1.000344 C.ar      1 <1>         0.051300 
     25 C           2.076333    2.889368    0.994845 C.ar      1 <1>        -0.016366 
     26 C           0.883564    2.010793    1.006502 C.ar      1 <1>         0.105873 
     27 O          -1.801553    4.625622    1.026196 O.3       1 <1>        -0.357192 
     28 O          -2.723744   -2.136763    0.021932 O.3       1 <1>        -0.386401 
     29 O          -3.511882   -1.350548    3.586250 O.3       1 <1>        -0.386488 
     30 O          -3.876371    0.739141    2.031003 O.3       1 <1>        -0.384091 
     31 O           1.081837    0.634399    1.018235 O.3       1 <1>        -0.357192 
     32 C           3.175330    5.127165    0.991763 C.2       1 <1>         0.291400 
     33 O           4.395141    4.583881    0.974364 O.3       1 <1>        -0.327488 
     34 O           3.035573    6.340388    1.000929 O.2       1 <1>        -0.259427 
     35 H           1.766747   -4.844200   -1.967398 H         1 <1>         0.065181 
     36 H           0.406496   -0.737610   -1.581749 H         1 <1>         0.065181 
     37 H           2.579747   -4.475570   -5.365810 H         1 <1>         0.217423 
     38 H           1.808595   -1.280257   -5.987275 H         1 <1>         0.217501 
     39 H           0.635784    0.589061   -3.603324 H         1 <1>         0.217423 
     40 H          -0.499903   -3.425669    2.143436 H         1 <1>         0.059272 
     41 H           0.776618   -2.196796    2.354064 H         1 <1>         0.059272 
     42 H          -1.014492   -1.517441    3.704117 H         1 <1>         0.064694 
     43 H          -2.807698   -2.983898    2.616368 H         1 <1>         0.064673 
     44 H          -4.425803   -1.695133    1.152731 H         1 <1>         0.064758 
     45 H          -3.552532    0.357598    0.001630 H         1 <1>         0.067108 
     46 H          -1.145006   -0.042479    0.180296 H         1 <1>         0.094162 
     47 H           0.503007    5.923606    1.020430 H         1 <1>         0.065181 
     48 H           3.057879    2.427338    0.983621 H         1 <1>         0.065181 
     49 H          -1.830440    5.563700    1.178962 H         1 <1>         0.217423 
     50 H          -2.799280   -3.085363    0.055668 H         1 <1>         0.210005 
     51 H          -3.550508   -0.396797    3.554607 H         1 <1>         0.210004 
     52 H          -3.734391    1.681860    1.980122 H         1 <1>         0.210111 
     53 H           0.788700    0.286506    1.854580 H         1 <1>         0.217423 
     54 H           5.084382    5.239651    0.969559 H         1 <1>         0.220555 
@<TRIPOS>BOND
     1    1    2 1    
     2    1    6 2    
     3    1   10 1    
     4    2    3 2    
     5    2   35 1    
     6    3    4 1    
     7    3    7 1    
     8    4    5 2    
     9    4    8 1    
    10    5    6 1    
    11    5    9 1    
    12    6   36 1    
    13    7   37 1    
    14    8   38 1    
    15    9   39 1    
    16   10   11 1    
    17   10   12 2    
    18   11   13 1    
    19   13   14 1    
    20   13   40 1    
    21   13   41 1    
    22   14   15 1    
    23   14   19 1    
    24   14   42 1    
    25   15   16 1    
    26   15   29 1    
    27   15   43 1    
    28   16   17 1    
    29   16   28 1    
    30   16   44 1    
    31   17   18 1    
    32   17   30 1    
    33   17   45 1    
    34   18   19 1    
    35   18   20 1    
    36   18   46 1    
    37   20   21 1    
    38   21   22 1    
    39   21   26 2    
    40   22   23 2    
    41   22   27 1    
    42   23   24 1    
    43   23   47 1    
    44   24   25 2    
    45   24   32 1    
    46   25   26 1    
    47   25   48 1    
    48   26   31 1    
    49   27   49 1    
    50   28   50 1    
    51   29   51 1    
    52   30   52 1    
    53   31   53 1    
    54   32   33 1    
    55   32   34 2    
    56   33   54 1    
@<TRIPOS>SUBSTRUCTURE
     1 ****        1 TEMP              0 ****  ****    0 ROOT 
@<TRIPOS>NORMAL
@<TRIPOS>FF_PBC
FORCE_FIELD_SETUP_FEATURE Force Field Setup information
v1.0  0 0.000000 0.000000 0.000000 0.000000 0.000000 0.000000 NONE 0 0 0 0 1 0 0 0 0 0 0 0 0
