@<TRIPOS>MOLECULE
MOL005007
   47    50     1     1     0
SMALL
GASTEIGER


@<TRIPOS>ATOM
      1 O          -0.934671    2.170638   -2.584464 O.3       1 <1>        -0.342797 
      2 O          -2.768575   -1.305921   -1.735162 O.2       1 <1>        -0.291153 
      3 C          -0.771430   -0.271203   -2.283361 C.3       1 <1>         0.073488 
      4 C          -2.788406    1.067077   -1.285532 C.ar      1 <1>         0.078042 
      5 C          -2.173924   -0.244240   -1.742311 C.2       1 <1>         0.177736 
      6 C          -2.110925    2.275935   -1.835685 C.ar      1 <1>         0.091618 
      7 C          -0.612788    0.937894   -3.233381 C.3       1 <1>         0.068180 
      8 C          -3.908998    1.265857   -0.408853 C.ar      1 <1>         0.091217 
      9 C          -2.601488    3.558324   -1.588134 C.ar      1 <1>        -0.001052 
     10 C          -4.400163    2.644974   -0.167964 C.ar      1 <1>        -0.001065 
     11 C          -3.790166    3.762278   -0.738104 C.ar      1 <1>         0.077510 
     12 O          -4.269695    5.056638   -0.515356 O.3       1 <1>        -0.359667 
     13 C           0.221601   -0.335147   -1.105466 C.ar      1 <1>        -0.004160 
     14 C           1.175394    0.699633    0.968057 C.ar      1 <1>        -0.030620 
     15 C           0.336233    0.789812   -0.142023 C.ar      1 <1>        -0.052895 
     16 C           1.978954   -0.518612    1.191855 C.ar      1 <1>         0.086876 
     17 C           1.022729   -1.480590   -0.910527 C.ar      1 <1>         0.086079 
     18 C           1.935714   -1.561543    0.260890 C.ar      1 <1>         0.034768 
     19 O           0.947364   -2.542728   -1.811598 O.3       1 <1>        -0.358868 
     20 O          -4.605532    0.257433    0.275473 O.3       1 <1>        -0.347047 
     21 C          -4.517628   -1.170176    0.237264 C.3       1 <1>         0.043055 
     22 C           2.831159   -2.752472    0.501768 C.2       1 <1>        -0.050894 
     23 C           3.767472   -2.668887    1.454134 C.2       1 <1>        -0.051917 
     24 O           2.758459   -0.628474    2.341493 O.3       1 <1>        -0.334125 
     25 C           3.963118   -1.409463    2.269713 C.3       1 <1>         0.088837 
     26 H          -0.654232   -1.166811   -2.917543 H         1 <1>         0.045323 
     27 H           0.424840    0.997156   -3.598722 H         1 <1>         0.057526 
     28 H          -1.282163    0.828268   -4.104056 H         1 <1>         0.057526 
     29 H          -2.098184    4.419213   -2.012127 H         1 <1>         0.066931 
     30 H          -5.267785    2.768217    0.472876 H         1 <1>         0.066931 
     31 H          -5.012921    5.107313    0.077240 H         1 <1>         0.217316 
     32 H           1.246808    1.520266    1.672143 H         1 <1>         0.064358 
     33 H          -0.227034    1.701141   -0.278471 H         1 <1>         0.062209 
     34 H           0.661342   -3.339711   -1.379874 H         1 <1>         0.217351 
     35 H          -5.229061   -1.538976    0.989243 H         1 <1>         0.052870 
     36 H          -3.517432   -1.529278    0.516456 H         1 <1>         0.052870 
     37 H          -4.843867   -1.558789   -0.736006 H         1 <1>         0.052870 
     38 H           2.726754   -3.663713   -0.087307 H         1 <1>         0.062283 
     39 H           4.414599   -3.526338    1.632029 H         1 <1>         0.060053 
     40 C           5.091258   -0.550726    1.640010 C.3       1 <1>        -0.031936 
     41 C           4.304248   -1.778234    3.736018 C.3       1 <1>        -0.031936 
     42 H           3.471937   -2.345741    4.174512 H         1 <1>         0.026052 
     43 H           5.218272   -2.387329    3.788285 H         1 <1>         0.026052 
     44 H           4.453016   -0.868088    4.335380 H         1 <1>         0.026052 
     45 H           5.982525   -1.166669    1.441989 H         1 <1>         0.026052 
     46 H           4.748411   -0.108586    0.691732 H         1 <1>         0.026052 
     47 H           5.379314    0.269019    2.317754 H         1 <1>         0.026052 
@<TRIPOS>BOND
     1    1    6 1    
     2    7    1 1    
     3    5    2 2    
     4    3    5 1    
     5    3    7 1    
     6    3   13 1    
     7    3   26 1    
     8    5    4 1    
     9    4    6 1    
    10    4    8 2    
    11    6    9 2    
    12    7   27 1    
    13    7   28 1    
    14    8   10 1    
    15    8   20 1    
    16    9   11 1    
    17    9   29 1    
    18   10   11 2    
    19   10   30 1    
    20   11   12 1    
    21   12   31 1    
    22   13   15 1    
    23   13   17 2    
    24   15   14 2    
    25   14   16 1    
    26   14   32 1    
    27   15   33 1    
    28   16   18 2    
    29   16   24 1    
    30   17   18 1    
    31   17   19 1    
    32   18   22 1    
    33   19   34 1    
    34   20   21 1    
    35   21   35 1    
    36   21   36 1    
    37   21   37 1    
    38   22   23 2    
    39   22   38 1    
    40   23   25 1    
    41   23   39 1    
    42   24   25 1    
    43   25   40 1    
    44   25   41 1    
    45   40   45 1    
    46   40   46 1    
    47   40   47 1    
    48   41   42 1    
    49   41   43 1    
    50   41   44 1    
@<TRIPOS>SUBSTRUCTURE
     1 ****        2 TEMP              0 ****  ****    0 ROOT 
@<TRIPOS>NORMAL
@<TRIPOS>FF_PBC
FORCE_FIELD_SETUP_FEATURE Force Field Setup information
v1.0  0 0.000000 0.000000 0.000000 0.000000 0.000000 0.000000 NONE 0 0 0 0 1 0 0 0 0 0 0 0 0
