@<TRIPOS>MOLECULE
MOL001757
   16    17     1     1     0
SMALL
GASTEIGER


@<TRIPOS>ATOM
      1 C           1.081236    0.155692   -0.112718 C.ar      1 <1>         0.238466 
      2 C           0.143864    1.005028    0.196061 C.ar      1 <1>         0.314412 
      3 N           0.785078   -1.136770   -0.349624 N.2       1 <1>        -0.192682 
      4 N           2.261057    0.840787   -0.125525 N.ar      1 <1>        -0.167365 
      5 C          -1.275797    0.511937    0.282848 C.2       1 <1>         0.318465 
      6 N           0.662495    2.248662    0.391954 N.ar      1 <1>        -0.187319 
      7 C          -0.404903   -1.599501   -0.287826 C.2       1 <1>         0.186408 
      8 C           1.995113    2.178178    0.196849 C.ar      1 <1>         0.268213 
      9 N          -1.463131   -0.800753    0.026825 N.am      1 <1>        -0.249194 
     10 O          -2.165180    1.294551    0.571228 O.2       1 <1>        -0.263100 
     11 N          -0.636232   -2.859336   -0.526899 N.pl3     1 <1>        -0.330699 
     12 H           0.127411    3.072356    0.639291 H         1 <1>         0.454707 
     13 H           2.729060    2.979530    0.269358 H         1 <1>         0.161900 
     14 H          -2.398909   -1.154153    0.077866 H         1 <1>         0.157962 
     15 H           0.147333   -3.485086   -0.767310 H         1 <1>         0.144914 
     16 H          -1.588497   -3.250819   -0.482076 H         1 <1>         0.144914 
@<TRIPOS>BOND
     1    1    2 2    
     2    1    3 1    
     3    1    4 1    
     4    2    5 1    
     5    2    6 1    
     6    3    7 2    
     7    4    8 2    
     8    5    9 1    
     9    5   10 2    
    10    6    8 1    
    11    6   12 1    
    12    7    9 1    
    13    7   11 1    
    14    8   13 1    
    15    9   14 1    
    16   11   15 1    
    17   11   16 1    
@<TRIPOS>SUBSTRUCTURE
     1 ****        1 TEMP              0 ****  ****    0 ROOT 
@<TRIPOS>NORMAL
@<TRIPOS>FF_PBC
FORCE_FIELD_SETUP_FEATURE Force Field Setup information
v1.0  0 0.000000 0.000000 0.000000 0.000000 0.000000 0.000000 NONE 0 0 0 0 1 0 0 0 0 0 0 0 0
