@<TRIPOS>MOLECULE
MOL000924
   34    33     1     1     0
SMALL
GASTEIGER


@<TRIPOS>ATOM
      1 C           5.571118    1.704237    0.001246 C.3       1 <1>        -0.006065 
      2 C           5.470127    0.197019   -0.003247 C.2       1 <1>         0.130322 
      3 C           4.130659   -0.511070    0.000874 C.3       1 <1>         0.005543 
      4 C           2.828637    0.337301   -0.000834 C.3       1 <1>        -0.046385 
      5 C           1.563697   -0.566041    0.000456 C.3       1 <1>        -0.052673 
      6 C           0.261881    0.282028   -0.000133 C.3       1 <1>        -0.053046 
      7 C          -1.002625   -0.620300    0.000258 C.3       1 <1>        -0.053057 
      8 C          -2.304459    0.227435   -0.000074 C.3       1 <1>        -0.053065 
      9 C          -3.567972   -0.676177    0.000134 C.3       1 <1>        -0.053306 
     10 C          -4.870716    0.169439   -0.000123 C.3       1 <1>        -0.055911 
     11 C          -6.129957   -0.736124    0.000095 C.3       1 <1>        -0.065276 
     12 O           6.495045   -0.465754   -0.009266 O.2       1 <1>        -0.297704 
     13 H           4.618621    2.247236   -0.004439 H         1 <1>         0.030578 
     14 H           6.131072    2.009438    0.897703 H         1 <1>         0.030578 
     15 H           6.143120    2.013600   -0.886171 H         1 <1>         0.030578 
     16 H           4.122262   -1.158210    0.892348 H         1 <1>         0.034143 
     17 H           4.120365   -1.163484   -0.886752 H         1 <1>         0.034143 
     18 H           2.804262    0.973636   -0.900798 H         1 <1>         0.026927 
     19 H           2.804092    0.976689    0.896967 H         1 <1>         0.026927 
     20 H           1.575333   -1.211513    0.894261 H         1 <1>         0.026539 
     21 H           1.574910   -1.213304   -0.892064 H         1 <1>         0.026539 
     22 H           0.247433    0.927480   -0.893820 H         1 <1>         0.026529 
     23 H           0.247331    0.928469    0.892839 H         1 <1>         0.026529 
     24 H          -0.988983   -1.265890    0.893845 H         1 <1>         0.026528 
     25 H          -0.989008   -1.266582   -0.892827 H         1 <1>         0.026528 
     26 H          -2.318780    0.873061   -0.893606 H         1 <1>         0.026528 
     27 H          -2.318861    0.873597    0.893069 H         1 <1>         0.026528 
     28 H          -3.554444   -1.321875    0.893658 H         1 <1>         0.026520 
     29 H          -3.554401   -1.322341   -0.893051 H         1 <1>         0.026520 
     30 H          -4.891782    0.815492   -0.893733 H         1 <1>         0.026265 
     31 H          -4.891821    0.815966    0.893143 H         1 <1>         0.026265 
     32 H          -7.041792   -0.117979   -0.000084 H         1 <1>         0.022978 
     33 H          -6.142248   -1.377403    0.895196 H         1 <1>         0.022978 
     34 H          -6.142216   -1.377875   -0.894670 H         1 <1>         0.022978 
@<TRIPOS>BOND
     1    1    2 1    
     2    1   13 1    
     3    1   14 1    
     4    1   15 1    
     5    2    3 1    
     6    2   12 2    
     7    3    4 1    
     8    3   16 1    
     9    3   17 1    
    10    4    5 1    
    11    4   18 1    
    12    4   19 1    
    13    5    6 1    
    14    5   20 1    
    15    5   21 1    
    16    6    7 1    
    17    6   22 1    
    18    6   23 1    
    19    7    8 1    
    20    7   24 1    
    21    7   25 1    
    22    8    9 1    
    23    8   26 1    
    24    8   27 1    
    25    9   10 1    
    26    9   28 1    
    27    9   29 1    
    28   10   11 1    
    29   10   30 1    
    30   10   31 1    
    31   11   32 1    
    32   11   33 1    
    33   11   34 1    
@<TRIPOS>SUBSTRUCTURE
     1 ****        1 TEMP              0 ****  ****    0 ROOT 
@<TRIPOS>NORMAL
@<TRIPOS>FF_PBC
FORCE_FIELD_SETUP_FEATURE Force Field Setup information
v1.0  0 0.000000 0.000000 0.000000 0.000000 0.000000 0.000000 NONE 0 0 0 0 1 0 0 0 0 0 0 0 0
