@<TRIPOS>MOLECULE
MOL004878
   47    49     1     1     0
SMALL
GASTEIGER


@<TRIPOS>ATOM
      1 C          -2.725230    1.990066   -0.669819 C.2       1 <1>         0.299461 
      2 C          -1.797161    2.303556    0.445023 C.2       1 <1>         0.057145 
      3 C          -0.861784    1.420166    0.813661 C.2       1 <1>        -0.036075 
      4 C          -0.714552    0.143614    0.023625 C.ar      1 <1>         0.036713 
      5 C          -1.723934   -0.128364   -1.018479 C.ar      1 <1>         0.098526 
      6 O          -2.734240    0.797229   -1.283094 O.3       1 <1>        -0.273171 
      7 C          -1.644264   -1.308967   -1.760217 C.ar      1 <1>        -0.000265 
      8 C          -0.537381   -2.270132   -1.537744 C.ar      1 <1>         0.080989 
      9 C           0.435716   -2.016093   -0.547602 C.ar      1 <1>         0.016702 
     10 C           0.342490   -0.755414    0.232650 C.ar      1 <1>         0.091336 
     11 O          -3.514764    2.836387   -1.056456 O.2       1 <1>        -0.258804 
     12 C           1.613699   -2.952233   -0.218075 C.3       1 <1>        -0.004333 
     13 C           1.525722   -4.386580   -0.687619 C.2       1 <1>        -0.080815 
     14 C           2.543795   -5.093245   -1.206373 C.2       1 <1>        -0.079306 
     15 C           2.353463   -6.511402   -1.702399 C.3       1 <1>        -0.044040 
     16 C           3.948563   -4.542839   -1.338715 C.3       1 <1>        -0.044040 
     17 O           1.330832   -0.448733    1.167603 O.3       1 <1>        -0.346877 
     18 C           2.353922    0.409040    0.628253 C.3       1 <1>         0.043065 
     19 O          -0.476322   -3.411683   -2.331196 O.3       1 <1>        -0.359385 
     20 C          -1.891110    3.632715    1.173087 C.ar      1 <1>         0.017745 
     21 C          -3.197646    4.252229    1.524881 C.ar      1 <1>         0.082884 
     22 C          -3.238014    5.477073    2.203272 C.ar      1 <1>        -0.001570 
     23 C          -1.993500    6.179546    2.585150 C.ar      1 <1>         0.075055 
     24 C          -0.758743    5.605288    2.251778 C.ar      1 <1>        -0.031201 
     25 C          -0.710760    4.313569    1.529758 C.ar      1 <1>        -0.048954 
     26 O          -2.074169    7.396631    3.267571 O.3       1 <1>        -0.359750 
     27 O          -4.397696    3.627022    1.198621 O.3       1 <1>        -0.359141 
     28 H          -0.199767    1.593930    1.661481 H         1 <1>         0.063295 
     29 H          -2.390492   -1.520541   -2.517106 H         1 <1>         0.066956 
     30 H           1.719156   -2.995191    0.877877 H         1 <1>         0.035721 
     31 H           2.498124   -2.451801   -0.632141 H         1 <1>         0.035721 
     32 H           0.547719   -4.856523   -0.579532 H         1 <1>         0.057473 
     33 H           3.012915   -7.191841   -1.143097 H         1 <1>         0.027427 
     34 H           1.319766   -6.872451   -1.594881 H         1 <1>         0.027427 
     35 H           2.622945   -6.559344   -2.768716 H         1 <1>         0.027427 
     36 H           4.681633   -5.349753   -1.491242 H         1 <1>         0.027427 
     37 H           4.251260   -4.003827   -0.428792 H         1 <1>         0.027427 
     38 H           4.002787   -3.863529   -2.202866 H         1 <1>         0.027427 
     39 H           3.093730    0.595759    1.420635 H         1 <1>         0.052870 
     40 H           1.936939    1.375505    0.298716 H         1 <1>         0.052870 
     41 H           2.870220   -0.053566   -0.228368 H         1 <1>         0.052870 
     42 H           0.306184   -3.404663   -2.872900 H         1 <1>         0.217328 
     43 H          -4.194609    5.919426    2.454834 H         1 <1>         0.066920 
     44 H           0.170252    6.100347    2.518618 H         1 <1>         0.064340 
     45 H           0.261028    3.902312    1.276725 H         1 <1>         0.062523 
     46 H          -1.233520    7.792130    3.472472 H         1 <1>         0.217315 
     47 H          -4.511934    3.602674    0.253067 H         1 <1>         0.217339 
@<TRIPOS>BOND
     1    1    2 1    
     2    1    6 1    
     3    1   11 2    
     4    2    3 2    
     5    2   20 1    
     6    3    4 1    
     7    3   28 1    
     8    4    5 1    
     9    4   10 2    
    10    5    6 1    
    11    5    7 2    
    12    7    8 1    
    13    7   29 1    
    14    8    9 2    
    15    8   19 1    
    16    9   10 1    
    17    9   12 1    
    18   10   17 1    
    19   12   13 1    
    20   12   30 1    
    21   12   31 1    
    22   13   14 2    
    23   13   32 1    
    24   14   15 1    
    25   14   16 1    
    26   15   33 1    
    27   15   34 1    
    28   15   35 1    
    29   16   36 1    
    30   16   37 1    
    31   16   38 1    
    32   17   18 1    
    33   18   39 1    
    34   18   40 1    
    35   18   41 1    
    36   19   42 1    
    37   20   21 1    
    38   20   25 2    
    39   21   22 2    
    40   21   27 1    
    41   22   23 1    
    42   22   43 1    
    43   23   24 2    
    44   23   26 1    
    45   24   25 1    
    46   24   44 1    
    47   25   45 1    
    48   26   46 1    
    49   27   47 1    
@<TRIPOS>SUBSTRUCTURE
     1 ****        1 TEMP              0 ****  ****    0 ROOT 
@<TRIPOS>NORMAL
@<TRIPOS>FF_PBC
FORCE_FIELD_SETUP_FEATURE Force Field Setup information
v1.0  0 0.000000 0.000000 0.000000 0.000000 0.000000 0.000000 NONE 0 0 0 0 1 0 0 0 0 0 0 0 0
