@<TRIPOS>MOLECULE
MOL004863
   44    46     1     1     0
SMALL
GASTEIGER


@<TRIPOS>ATOM
      1 C           5.780859   -5.943713   -0.510870 C.ar      1 <1>         0.102767 
      2 C           7.299504   -6.045161   -0.523854 C.ar      1 <1>        -0.021510 
      3 C           8.136100   -4.987217    0.095783 C.ar      1 <1>        -0.009703 
      4 C           7.456664   -3.791432    0.744194 C.ar      1 <1>        -0.051259 
      5 C           5.980969   -3.671656    0.725648 C.ar      1 <1>        -0.028829 
      6 C           5.130386   -4.757981    0.100579 C.ar      1 <1>         0.102221 
      7 C          12.474914   -5.214942   -0.051373 C.ar      1 <1>         0.101520 
      8 C          13.833685   -5.164902   -0.154992 C.ar      1 <1>         0.017321 
      9 C          14.587910   -6.453505   -0.187252 C.ar      1 <1>         0.080983 
     10 C          13.927169   -7.638453   -0.049393 C.ar      1 <1>        -0.001024 
     11 C          12.458698   -7.687289    0.116614 C.ar      1 <1>         0.088350 
     12 C          11.767533   -6.500959    0.109950 C.ar      1 <1>         0.082794 
     13 O          11.818769   -8.922870    0.267341 O.3       1 <1>        -0.358955 
     14 O          15.970809   -6.448429   -0.375064 O.3       1 <1>        -0.359385 
     15 O          11.736630   -4.028531   -0.100694 O.3       1 <1>        -0.314985 
     16 C          10.396089   -3.997558   -0.084568 C.2       1 <1>         0.058268 
     17 C           9.645998   -5.097015    0.088454 C.2       1 <1>         0.052732 
     18 C          10.273451   -6.413716    0.268229 C.2       1 <1>         0.200582 
     19 O           3.741832   -4.630672    0.106711 O.3       1 <1>        -0.357274 
     20 O           4.988429   -6.948536   -1.070084 O.3       1 <1>        -0.357261 
     21 O           9.628662   -7.414888    0.541238 O.2       1 <1>        -0.286389 
     22 C          14.456315   -3.747409   -0.236209 C.3       1 <1>        -0.004315 
     23 C          15.936458   -3.465564   -0.067245 C.2       1 <1>        -0.080815 
     24 C          16.484586   -2.235534   -0.056041 C.2       1 <1>        -0.079306 
     25 C          15.693941   -0.949476   -0.181156 C.3       1 <1>        -0.044040 
     26 C          17.981122   -2.029448    0.088405 C.3       1 <1>        -0.044040 
     27 H           7.769995   -6.899261   -0.995217 H         1 <1>         0.065014 
     28 H           8.041624   -3.019129    1.230383 H         1 <1>         0.062445 
     29 H           5.497511   -2.804207    1.161902 H         1 <1>         0.064421 
     30 H          14.459841   -8.582008   -0.066033 H         1 <1>         0.066932 
     31 H          10.867351   -8.875485    0.316794 H         1 <1>         0.217342 
     32 H          16.410717   -7.271960   -0.193094 H         1 <1>         0.217328 
     33 H           9.950226   -3.014814   -0.229968 H         1 <1>         0.089749 
     34 H           3.328663   -5.412865   -0.242936 H         1 <1>         0.217422 
     35 H           5.466182   -7.760046   -1.206714 H         1 <1>         0.217422 
     36 H          13.967984   -3.172950    0.565921 H         1 <1>         0.035722 
     37 H          14.153677   -3.329779   -1.207192 H         1 <1>         0.035722 
     38 H          16.621064   -4.295810    0.054475 H         1 <1>         0.057473 
     39 H          14.608847   -1.078141   -0.287503 H         1 <1>         0.027427 
     40 H          15.872277   -0.340731    0.718609 H         1 <1>         0.027427 
     41 H          16.050361   -0.389018   -1.059111 H         1 <1>         0.027427 
     42 H          18.555176   -2.968487    0.102039 H         1 <1>         0.027427 
     43 H          18.352423   -1.423622   -0.753609 H         1 <1>         0.027427 
     44 H          18.192951   -1.486729    1.022932 H         1 <1>         0.027427 
@<TRIPOS>BOND
     1    2    1 2    
     2    1    6 1    
     3    1   20 1    
     4    3    2 1    
     5    2   27 1    
     6    3    4 2    
     7   17    3 1    
     8    4    5 1    
     9    4   28 1    
    10    5    6 2    
    11    5   29 1    
    12    6   19 1    
    13    7    8 2    
    14    7   12 1    
    15   15    7 1    
    16    8    9 1    
    17    8   22 1    
    18    9   10 2    
    19    9   14 1    
    20   11   10 1    
    21   10   30 1    
    22   12   11 2    
    23   11   13 1    
    24   12   18 1    
    25   13   31 1    
    26   14   32 1    
    27   16   15 1    
    28   16   17 2    
    29   16   33 1    
    30   17   18 1    
    31   18   21 2    
    32   19   34 1    
    33   20   35 1    
    34   22   23 1    
    35   22   36 1    
    36   22   37 1    
    37   23   24 2    
    38   23   38 1    
    39   24   25 1    
    40   24   26 1    
    41   25   39 1    
    42   25   40 1    
    43   25   41 1    
    44   26   42 1    
    45   26   43 1    
    46   26   44 1    
@<TRIPOS>SUBSTRUCTURE
     1 ****        7 TEMP              0 ****  ****    0 ROOT 
@<TRIPOS>NORMAL
@<TRIPOS>FF_PBC
FORCE_FIELD_SETUP_FEATURE Force Field Setup information
v1.0  0 0.000000 0.000000 0.000000 0.000000 0.000000 0.000000 NONE 0 0 0 0 1 0 0 0 0 0 0 0 0
