@<TRIPOS>MOLECULE
MOL002124
   31    31     1     1     0
SMALL
GASTEIGER


@<TRIPOS>ATOM
      1 C           1.079321    0.637426   -0.167843 C.ar      1 <1>         0.007250 
      2 C           1.657314   -0.687641    0.185647 C.ar      1 <1>         0.085526 
      3 C          -0.345755    0.764536   -0.203579 C.ar      1 <1>        -0.019541 
      4 C           2.065408    1.757390   -0.464559 C.2       1 <1>        -0.056236 
      5 C           0.795444   -1.781896    0.475750 C.ar      1 <1>         0.001447 
      6 O           3.053211   -0.829681    0.225371 O.3       1 <1>        -0.347241 
      7 C          -1.254243   -0.373442    0.097965 C.ar      1 <1>         0.106371 
      8 C           1.878310    3.044805   -0.808338 C.2       1 <1>        -0.086471 
      9 C          -0.676455   -1.647302    0.437860 C.ar      1 <1>         0.108131 
     10 C           3.699364   -2.069656    0.557018 C.3       1 <1>         0.043052 
     11 O          -2.648492   -0.217459    0.054400 O.3       1 <1>        -0.345321 
     12 C           0.593176    3.808468   -1.014772 C.3       1 <1>        -0.046508 
     13 O          -1.441597   -2.785855    0.739844 O.3       1 <1>        -0.345258 
     14 C          -3.284658    1.026796   -0.278383 C.3       1 <1>         0.043136 
     15 C          -2.877578   -2.791342    0.739189 C.3       1 <1>         0.043137 
     16 H          -0.787536    1.707300   -0.454953 H         1 <1>         0.065082 
     17 H           3.115602    1.470558   -0.385902 H         1 <1>         0.062105 
     18 H           1.189134   -2.755295    0.735425 H         1 <1>         0.067019 
     19 H           2.782343    3.640994   -0.965430 H         1 <1>         0.056946 
     20 H           4.785588   -1.901717    0.513912 H         1 <1>         0.052870 
     21 H           3.442779   -2.856955   -0.168371 H         1 <1>         0.052870 
     22 H           3.440067   -2.391434    1.577358 H         1 <1>         0.052870 
     23 H           0.810887    4.851774   -1.293573 H         1 <1>         0.027180 
     24 H           0.006509    3.837573   -0.084556 H         1 <1>         0.027180 
     25 H           0.009289    3.368714   -1.836972 H         1 <1>         0.027180 
     26 H          -4.371855    0.865369   -0.237164 H         1 <1>         0.052871 
     27 H          -3.022094    1.346784   -1.298442 H         1 <1>         0.052871 
     28 H          -3.025040    1.812345    0.447812 H         1 <1>         0.052871 
     29 H          -3.205555   -3.805835    1.008785 H         1 <1>         0.052871 
     30 H          -3.274862   -2.556633   -0.260070 H         1 <1>         0.052871 
     31 H          -3.277456   -2.091161    1.488381 H         1 <1>         0.052871 
@<TRIPOS>BOND
     1    1    2 1    
     2    1    3 2    
     3    1    4 1    
     4    2    5 2    
     5    2    6 1    
     6    3    7 1    
     7    3   16 1    
     8    4    8 2    
     9    4   17 1    
    10    5    9 1    
    11    5   18 1    
    12    6   10 1    
    13    7    9 2    
    14    7   11 1    
    15    8   12 1    
    16    8   19 1    
    17    9   13 1    
    18   10   20 1    
    19   10   21 1    
    20   10   22 1    
    21   11   14 1    
    22   12   23 1    
    23   12   24 1    
    24   12   25 1    
    25   13   15 1    
    26   14   26 1    
    27   14   27 1    
    28   14   28 1    
    29   15   29 1    
    30   15   30 1    
    31   15   31 1    
@<TRIPOS>SUBSTRUCTURE
     1 ****        1 TEMP              0 ****  ****    0 ROOT 
@<TRIPOS>NORMAL
@<TRIPOS>FF_PBC
FORCE_FIELD_SETUP_FEATURE Force Field Setup information
v1.0  0 0.000000 0.000000 0.000000 0.000000 0.000000 0.000000 NONE 0 0 0 0 1 0 0 0 0 0 0 0 0
