@<TRIPOS>MOLECULE
MOL004807
   23    23     1     1     0
SMALL
GASTEIGER


@<TRIPOS>ATOM
      1 O           0.331524   -1.601082    0.078085 O.3       1 <1>        -0.332874 
      2 O          -1.471859    2.155941    0.593126 O.3       1 <1>        -0.386388 
      3 O           1.362203    1.988186   -0.070792 O.3       1 <1>        -0.386033 
      4 O          -3.072096   -0.121228   -0.191363 O.3       1 <1>        -0.384110 
      5 O          -1.685291   -2.709508    0.105058 O.3       1 <1>        -0.364870 
      6 O           3.463865    0.097395   -0.561809 O.3       1 <1>        -0.329249 
      7 O           2.891620   -1.397886    1.004836 O.2       1 <1>        -0.262180 
      8 C          -0.908646    1.024241   -0.096144 C.3       1 <1>         0.114491 
      9 C           0.580870    0.834281    0.292915 C.3       1 <1>         0.119030 
     10 C          -1.718922   -0.239609    0.289584 C.3       1 <1>         0.133953 
     11 C           1.133181   -0.471509   -0.332083 C.3       1 <1>         0.174370 
     12 C          -1.048250   -1.498279   -0.323470 C.3       1 <1>         0.185916 
     13 C           2.568893   -0.639554    0.103108 C.2       1 <1>         0.291467 
     14 H          -0.994736    1.173492   -1.186374 H         1 <1>         0.064771 
     15 H           0.636064    0.741796    1.390171 H         1 <1>         0.065129 
     16 H          -1.713042   -0.345519    1.388056 H         1 <1>         0.067090 
     17 H           1.134836   -0.396829   -1.431269 H         1 <1>         0.072940 
     18 H          -1.142538   -1.461813   -1.421331 H         1 <1>         0.093558 
     19 H          -1.000441    2.963725    0.409143 H         1 <1>         0.210005 
     20 H           1.401805    2.145630   -1.008877 H         1 <1>         0.210020 
     21 H          -3.509444    0.648161    0.163536 H         1 <1>         0.210110 
     22 H          -1.585930   -2.849383    1.040494 H         1 <1>         0.212561 
     23 H           4.346735   -0.040649   -0.235597 H         1 <1>         0.220293 
@<TRIPOS>BOND
     1   11    1 1    
     2    1   12 1    
     3    8    2 1    
     4    2   19 1    
     5    9    3 1    
     6    3   20 1    
     7   10    4 1    
     8    4   21 1    
     9   12    5 1    
    10    5   22 1    
    11   13    6 1    
    12    6   23 1    
    13   13    7 2    
    14    9    8 1    
    15    8   10 1    
    16    8   14 1    
    17   11    9 1    
    18    9   15 1    
    19   12   10 1    
    20   10   16 1    
    21   11   13 1    
    22   11   17 1    
    23   12   18 1    
@<TRIPOS>SUBSTRUCTURE
     1 ****        2 TEMP              0 ****  ****    0 ROOT 
@<TRIPOS>NORMAL
@<TRIPOS>FF_PBC
FORCE_FIELD_SETUP_FEATURE Force Field Setup information
v1.0  0 0.000000 0.000000 0.000000 0.000000 0.000000 0.000000 NONE 0 0 0 0 1 0 0 0 0 0 0 0 0
