@<TRIPOS>MOLECULE
MOL002156
   13    12     1     1     0
SMALL
GASTEIGER


@<TRIPOS>ATOM
      1 N           0.000001    0.000004    0.000162 N.3       1 <1>        -0.311357 
      2 C           1.284692    0.731954    0.000133 C.3       1 <1>        -0.013340 
      3 C          -0.008463   -1.478539   -0.000092 C.3       1 <1>        -0.013340 
      4 C          -1.276228    0.746612   -0.000088 C.3       1 <1>        -0.013340 
      5 H           2.143636    0.043438   -0.000064 H         1 <1>         0.039042 
      6 H           1.344331    1.366824    0.897037 H         1 <1>         0.039042 
      7 H           1.344198    1.367170   -0.896534 H         1 <1>         0.039042 
      8 H          -1.034209   -1.878149    0.000072 H         1 <1>         0.039042 
      9 H           0.511528   -1.847528   -0.897039 H         1 <1>         0.039042 
     10 H           0.511897   -1.847788    0.896533 H         1 <1>         0.039042 
     11 H          -1.109425    1.834736    0.000085 H         1 <1>         0.039042 
     12 H          -1.855775    0.480786   -0.897037 H         1 <1>         0.039042 
     13 H          -1.856183    0.480581    0.896535 H         1 <1>         0.039042 
@<TRIPOS>BOND
     1    1    2 1    
     2    1    3 1    
     3    1    4 1    
     4    2    5 1    
     5    2    6 1    
     6    2    7 1    
     7    3    8 1    
     8    3    9 1    
     9    3   10 1    
    10    4   11 1    
    11    4   12 1    
    12    4   13 1    
@<TRIPOS>SUBSTRUCTURE
     1 ****        1 TEMP              0 ****  ****    0 ROOT 
@<TRIPOS>NORMAL
@<TRIPOS>FF_PBC
FORCE_FIELD_SETUP_FEATURE Force Field Setup information
v1.0  0 0.000000 0.000000 0.000000 0.000000 0.000000 0.000000 NONE 0 0 0 0 1 0 0 0 0 0 0 0 0
