@<TRIPOS>MOLECULE
MOL000056
   24    24     1     1     0
SMALL
GASTEIGER


@<TRIPOS>ATOM
      1 C           3.075663    0.883284   -1.227164 C.2       1 <1>         0.276862 
      2 N           2.673054   -0.353774    0.867513 N.3       1 <1>        -0.319059 
      3 C           2.064111    0.116395   -0.402546 C.3       1 <1>         0.095383 
      4 C           0.799054    0.987867   -0.156442 C.3       1 <1>        -0.003153 
      5 C          -0.503446    0.214103    0.127534 C.ar      1 <1>        -0.045244 
      6 C          -0.564670   -1.252193    0.370720 C.ar      1 <1>        -0.056080 
      7 C          -1.793806   -1.886936    0.593684 C.ar      1 <1>        -0.031682 
      8 C          -3.058503   -1.119934    0.595542 C.ar      1 <1>         0.072598 
      9 O          -4.263022   -1.793849    0.807950 O.3       1 <1>        -0.359832 
     10 C          -3.016664    0.274278    0.382630 C.ar      1 <1>        -0.031682 
     11 C          -1.716305    0.947072    0.146201 C.ar      1 <1>        -0.056080 
     12 O           4.120466    1.291635   -0.743612 O.2       1 <1>        -0.263427 
     13 O           2.755466    1.085619   -2.507554 O.3       1 <1>        -0.330089 
     14 H           1.921064   -0.603107    1.601473 H         1 <1>         0.118930 
     15 H           3.330971    0.400314    1.280592 H         1 <1>         0.118930 
     16 H           1.809716   -0.752397   -1.028114 H         1 <1>         0.056541 
     17 H           0.997301    1.684319    0.674093 H         1 <1>         0.033319 
     18 H           0.598127    1.583446   -1.061276 H         1 <1>         0.033319 
     19 H           0.328477   -1.864344    0.381299 H         1 <1>         0.062108 
     20 H          -1.829571   -2.957041    0.768953 H         1 <1>         0.064328 
     21 H          -5.037987   -1.251967    0.717683 H         1 <1>         0.217313 
     22 H          -3.927008    0.864241    0.385749 H         1 <1>         0.064328 
     23 H          -1.701329    2.019529   -0.019901 H         1 <1>         0.062108 
     24 H           3.431599    1.567184   -2.971431 H         1 <1>         0.220259 
@<TRIPOS>BOND
     1    1    3 1    
     2    1   12 2    
     3    1   13 1    
     4    3    2 1    
     5    2   14 1    
     6    2   15 1    
     7    3    4 1    
     8    3   16 1    
     9    4    5 1    
    10    4   17 1    
    11    4   18 1    
    12    5    6 1    
    13    5   11 2    
    14    6    7 2    
    15    6   19 1    
    16    7    8 1    
    17    7   20 1    
    18    8    9 1    
    19    8   10 2    
    20    9   21 1    
    21   10   11 1    
    22   10   22 1    
    23   11   23 1    
    24   13   24 1    
@<TRIPOS>SUBSTRUCTURE
     1 ****        1 TEMP              0 ****  ****    0 ROOT 
@<TRIPOS>NORMAL
@<TRIPOS>FF_PBC
FORCE_FIELD_SETUP_FEATURE Force Field Setup information
v1.0  0 0.000000 0.000000 0.000000 0.000000 0.000000 0.000000 NONE 0 0 0 0 1 0 0 0 0 0 0 0 0
