@<TRIPOS>MOLECULE
MOL000886
   44    43     1     1     0
SMALL
GASTEIGER


@<TRIPOS>ATOM
      1 C          -8.337391   -0.443675   -0.000110 C.3       1 <1>        -0.065276 
      2 C          -7.057802    0.432832    0.000117 C.3       1 <1>        -0.055911 
      3 C          -5.773953   -0.441142   -0.000112 C.3       1 <1>        -0.053306 
      4 C          -4.491744    0.435715    0.000113 C.3       1 <1>        -0.053065 
      5 C          -3.207923   -0.438900   -0.000113 C.3       1 <1>        -0.053057 
      6 C          -1.925123    0.437250    0.000114 C.3       1 <1>        -0.053057 
      7 C          -0.641568   -0.437815   -0.000114 C.3       1 <1>        -0.053057 
      8 C           0.641568    0.437815    0.000114 C.3       1 <1>        -0.053057 
      9 C           1.925123   -0.437250   -0.000114 C.3       1 <1>        -0.053057 
     10 C           3.207923    0.438900    0.000113 C.3       1 <1>        -0.053057 
     11 C           4.491744   -0.435715   -0.000113 C.3       1 <1>        -0.053065 
     12 C           5.773953    0.441142    0.000112 C.3       1 <1>        -0.053306 
     13 C           7.057802   -0.432832   -0.000117 C.3       1 <1>        -0.055911 
     14 C           8.337391    0.443675    0.000110 C.3       1 <1>        -0.065276 
     15 H          -9.234596    0.195485    0.000056 H         1 <1>         0.022978 
     16 H          -8.364423   -1.084464   -0.895294 H         1 <1>         0.022978 
     17 H          -8.364422   -1.084927    0.894743 H         1 <1>         0.022978 
     18 H          -7.064391    1.079071    0.893756 H         1 <1>         0.026265 
     19 H          -7.064393    1.079534   -0.893192 H         1 <1>         0.026265 
     20 H          -5.774134   -1.086965   -0.893623 H         1 <1>         0.026520 
     21 H          -5.774132   -1.087430    0.893066 H         1 <1>         0.026520 
     22 H          -4.492444    1.081619    0.893587 H         1 <1>         0.026528 
     23 H          -4.492446    1.082083   -0.893025 H         1 <1>         0.026528 
     24 H          -3.207601   -1.084826   -0.893583 H         1 <1>         0.026528 
     25 H          -3.207600   -1.085291    0.893023 H         1 <1>         0.026528 
     26 H          -1.925548    1.083152    0.893596 H         1 <1>         0.026528 
     27 H          -1.925549    1.083618   -0.893038 H         1 <1>         0.026528 
     28 H          -0.641465   -1.083686   -0.893592 H         1 <1>         0.026528 
     29 H          -0.641464   -1.084151    0.893033 H         1 <1>         0.026528 
     30 H           0.641465    1.083686    0.893592 H         1 <1>         0.026528 
     31 H           0.641464    1.084151   -0.893033 H         1 <1>         0.026528 
     32 H           1.925548   -1.083152   -0.893596 H         1 <1>         0.026528 
     33 H           1.925549   -1.083618    0.893038 H         1 <1>         0.026528 
     34 H           3.207601    1.084826    0.893583 H         1 <1>         0.026528 
     35 H           3.207600    1.085291   -0.893023 H         1 <1>         0.026528 
     36 H           4.492444   -1.081619   -0.893587 H         1 <1>         0.026528 
     37 H           4.492446   -1.082083    0.893025 H         1 <1>         0.026528 
     38 H           5.774134    1.086965    0.893623 H         1 <1>         0.026520 
     39 H           5.774132    1.087430   -0.893066 H         1 <1>         0.026520 
     40 H           7.064391   -1.079071   -0.893756 H         1 <1>         0.026265 
     41 H           7.064393   -1.079534    0.893192 H         1 <1>         0.026265 
     42 H           9.234596   -0.195485   -0.000056 H         1 <1>         0.022978 
     43 H           8.364423    1.084464    0.895294 H         1 <1>         0.022978 
     44 H           8.364422    1.084927   -0.894743 H         1 <1>         0.022978 
@<TRIPOS>BOND
     1    1    2 1    
     2    1   15 1    
     3    1   16 1    
     4    1   17 1    
     5    2    3 1    
     6    2   18 1    
     7    2   19 1    
     8    3    4 1    
     9    3   20 1    
    10    3   21 1    
    11    4    5 1    
    12    4   22 1    
    13    4   23 1    
    14    5    6 1    
    15    5   24 1    
    16    5   25 1    
    17    6    7 1    
    18    6   26 1    
    19    6   27 1    
    20    7    8 1    
    21    7   28 1    
    22    7   29 1    
    23    8    9 1    
    24    8   30 1    
    25    8   31 1    
    26    9   10 1    
    27    9   32 1    
    28    9   33 1    
    29   10   11 1    
    30   10   34 1    
    31   10   35 1    
    32   11   12 1    
    33   11   36 1    
    34   11   37 1    
    35   12   13 1    
    36   12   38 1    
    37   12   39 1    
    38   13   14 1    
    39   13   40 1    
    40   13   41 1    
    41   14   42 1    
    42   14   43 1    
    43   14   44 1    
@<TRIPOS>SUBSTRUCTURE
     1 ****        1 TEMP              0 ****  ****    0 ROOT 
@<TRIPOS>NORMAL
@<TRIPOS>FF_PBC
FORCE_FIELD_SETUP_FEATURE Force Field Setup information
v1.0  0 0.000000 0.000000 0.000000 0.000000 0.000000 0.000000 NONE 0 0 0 0 1 0 0 0 0 0 0 0 0
