@<TRIPOS>MOLECULE
MOL004892
  121   127     1     1     0
SMALL
GASTEIGER


@<TRIPOS>ATOM
      1 C          22.106851  -34.063693   -0.226188 C.3       1 <1>         0.053721 
      2 C          23.565584  -33.464323   -0.200974 C.3       1 <1>        -0.038057 
      3 C          24.105541  -32.067276   -0.678805 C.3       1 <1>        -0.046118 
      4 C          23.309695  -30.853957   -0.017953 C.3       1 <1>        -0.025442 
      5 C          21.697054  -31.330573    0.362390 C.3       1 <1>        -0.012608 
      6 C          21.213512  -32.842348    0.201663 C.3       1 <1>        -0.031522 
      7 C          22.927729  -29.469407   -0.642095 C.3       1 <1>        -0.046277 
      8 C          21.896052  -28.458512    0.073646 C.3       1 <1>        -0.042869 
      9 C          20.329227  -28.752382   -0.315656 C.3       1 <1>        -0.004332 
     10 C          20.483328  -30.374666   -0.190688 C.2       1 <1>        -0.056185 
     11 C          18.685163  -28.690256   -0.007623 C.3       1 <1>        -0.012656 
     12 C          17.472704  -29.730182   -0.273478 C.3       1 <1>         0.033333 
     13 C          18.106426  -31.054019   -0.346634 C.2       1 <1>         0.160199 
     14 C          19.485723  -31.034521   -0.791731 C.2       1 <1>        -0.018839 
     15 C          18.091666  -27.713368   -1.147857 C.3       1 <1>        -0.045875 
     16 C          16.943803  -26.780142   -0.575776 C.3       1 <1>        -0.048505 
     17 C          15.872762  -27.727508    0.171304 C.3       1 <1>        -0.025088 
     18 C          15.965033  -29.351590    0.156417 C.3       1 <1>        -0.018168 
     19 C          14.496972  -27.078679    0.694280 C.3       1 <1>         0.020643 
     20 C          13.264404  -27.863191    0.044307 C.3       1 <1>         0.069511 
     21 C          13.625456  -28.822045   -1.148699 C.3       1 <1>        -0.025375 
     22 C          14.731026  -29.868317   -0.764419 C.3       1 <1>        -0.044318 
     23 O          23.766537  -35.895419   -0.571014 O.3       1 <1>        -0.330857 
     24 C          21.109412  -35.325763   -0.136377 C.3       1 <1>        -0.050480 
     25 C          23.067027  -35.164969    0.334777 C.2       1 <1>         0.265560 
     26 O          23.210125  -35.402666    1.514319 O.2       1 <1>        -0.264567 
     27 C          15.693195  -30.234627    1.445073 C.3       1 <1>        -0.058617 
     28 C          18.592218  -28.600561    1.580186 C.3       1 <1>        -0.058099 
     29 C          20.269359  -27.105244    0.102864 C.3       1 <1>        -0.055302 
     30 C          24.722430  -30.162981    0.587467 C.3       1 <1>        -0.059016 
     31 C          14.535777  -25.559566    0.299492 C.3       1 <1>         0.052209 
     32 C          14.170980  -27.016541    2.233059 C.3       1 <1>        -0.054821 
     33 O          12.281537  -26.929297   -0.479414 O.3       1 <1>        -0.344781 
     34 C           8.333059  -28.605135   -0.842199 C.3       1 <1>         0.119040 
     35 C           9.521627  -29.253494   -0.068844 C.3       1 <1>         0.174377 
     36 O          10.784951  -28.699115   -0.473653 O.3       1 <1>        -0.332678 
     37 C          10.860661  -27.270519   -0.346628 C.3       1 <1>         0.189108 
     38 C           9.993801  -26.644391   -1.497383 C.3       1 <1>         0.140651 
     39 C           8.756432  -27.537014   -1.882883 C.3       1 <1>         0.114864 
     40 C           9.598656  -30.761335   -0.270673 C.2       1 <1>         0.291467 
     41 O           8.478193  -31.430821    0.011446 O.3       1 <1>        -0.329249 
     42 O          10.589188  -31.316733   -0.654189 O.2       1 <1>        -0.262180 
     43 O           7.351062  -28.164631    0.110485 O.3       1 <1>        -0.386033 
     44 O           7.610970  -26.691560   -2.178090 O.3       1 <1>        -0.386378 
     45 C           8.526170  -23.993309    0.721119 C.3       1 <1>         0.174377 
     46 O           9.904993  -24.470125    0.659220 O.3       1 <1>        -0.332684 
     47 C          10.452811  -24.401411   -0.672574 C.3       1 <1>         0.189056 
     48 C          10.515827  -22.915799   -1.128874 C.3       1 <1>         0.134152 
     49 C           9.193467  -22.131381   -0.873683 C.3       1 <1>         0.114497 
     50 C           8.043027  -23.070314   -0.443098 C.3       1 <1>         0.119030 
     51 C           7.395391  -24.905181    1.168570 C.2       1 <1>         0.291467 
     52 O           6.619035  -25.984234    1.145754 O.3       1 <1>        -0.329249 
     53 O           7.835167  -25.593284    0.262348 O.2       1 <1>        -0.262180 
     54 O           9.636115  -25.224946   -1.525741 O.3       1 <1>        -0.337745 
     55 O           9.367649  -21.095134    0.112832 O.3       1 <1>        -0.386388 
     56 O           6.915189  -22.293788    0.021624 O.3       1 <1>        -0.386033 
     57 O          11.568463  -22.285268   -0.368010 O.3       1 <1>        -0.384104 
     58 O          17.514575  -32.122248   -0.132778 O.2       1 <1>        -0.292347 
     59 O          13.479913  -24.663098    0.709417 O.3       1 <1>        -0.394374 
     60 H          23.444630  -33.023498    0.840635 H         1 <1>         0.027550 
     61 H          23.063309  -33.225291   -1.151135 H         1 <1>         0.027550 
     62 H          25.116477  -32.283826   -0.252973 H         1 <1>         0.027098 
     63 H          24.435745  -31.815982   -1.716341 H         1 <1>         0.027098 
     64 H          21.620394  -31.234181    1.456998 H         1 <1>         0.035146 
     65 H          20.307494  -33.073277    0.782987 H         1 <1>         0.028121 
     66 H          20.918853  -32.920797   -0.844483 H         1 <1>         0.028121 
     67 H          22.733596  -29.578692    0.389966 H         1 <1>         0.027096 
     68 H          22.365439  -29.885618   -1.497199 H         1 <1>         0.027096 
     69 H          22.056066  -28.030230    1.167686 H         1 <1>         0.027392 
     70 H          22.362086  -27.684856   -0.589125 H         1 <1>         0.027392 
     71 H          17.241893  -29.970639   -1.305971 H         1 <1>         0.039170 
     72 H          19.571189  -31.641807   -1.699139 H         1 <1>         0.065218 
     73 H          18.814319  -27.152805   -1.753757 H         1 <1>         0.027107 
     74 H          17.663733  -28.148018   -2.054194 H         1 <1>         0.027107 
     75 H          17.331659  -25.973100    0.040988 H         1 <1>         0.026847 
     76 H          16.666032  -26.161931   -1.464924 H         1 <1>         0.026847 
     77 H          15.574525  -27.795212   -0.848609 H         1 <1>         0.031302 
     78 H          12.810431  -28.532614    0.787627 H         1 <1>         0.060308 
     79 H          12.745566  -29.354293   -1.530795 H         1 <1>         0.029048 
     80 H          13.926363  -28.210571   -2.020904 H         1 <1>         0.029048 
     81 H          14.118935  -30.663308   -0.317445 H         1 <1>         0.027160 
     82 H          15.074760  -30.314738   -1.701329 H         1 <1>         0.027160 
     83 H          23.625807  -35.653170   -1.482291 H         1 <1>         0.220226 
     84 H          20.186688  -35.068239   -0.680554 H         1 <1>         0.023986 
     85 H          21.321990  -36.325515   -0.570037 H         1 <1>         0.023986 
     86 H          20.766059  -35.471703    0.911058 H         1 <1>         0.023986 
     87 H          14.754323  -30.005353    1.933015 H         1 <1>         0.023535 
     88 H          15.600012  -31.288881    1.150548 H         1 <1>         0.023535 
     89 H          16.444155  -30.294909    2.230633 H         1 <1>         0.023535 
     90 H          19.206099  -27.876969    2.121740 H         1 <1>         0.023553 
     91 H          19.012927  -29.555904    1.946108 H         1 <1>         0.023553 
     92 H          17.573509  -28.475450    1.991218 H         1 <1>         0.023553 
     93 H          20.758757  -26.562011    0.936797 H         1 <1>         0.023829 
     94 H          19.381898  -26.533586    0.377980 H         1 <1>         0.023829 
     95 H          20.594896  -26.532815   -0.791245 H         1 <1>         0.023829 
     96 H          25.371621  -30.736549    1.248842 H         1 <1>         0.023525 
     97 H          24.686539  -29.161432    1.074944 H         1 <1>         0.023525 
     98 H          25.334876  -29.925077   -0.314290 H         1 <1>         0.023525 
     99 H          15.414024  -25.135652    0.813052 H         1 <1>         0.056334 
    100 H          14.622692  -25.446786   -0.787642 H         1 <1>         0.056334 
    101 H          14.979089  -26.570997    2.833496 H         1 <1>         0.023667 
    102 H          13.904385  -27.962996    2.709900 H         1 <1>         0.023667 
    103 H          13.254257  -26.412480    2.364970 H         1 <1>         0.023667 
    104 H           7.765639  -29.385606   -1.375890 H         1 <1>         0.065129 
    105 H           9.397101  -29.124137    1.018348 H         1 <1>         0.072940 
    106 H          10.515120  -26.946541    0.655673 H         1 <1>         0.093773 
    107 H          10.701258  -26.704424   -2.336999 H         1 <1>         0.067477 
    108 H           8.999329  -28.108788   -2.807378 H         1 <1>         0.064781 
    109 H           8.577353  -32.366388   -0.150342 H         1 <1>         0.220293 
    110 H           7.610330  -27.398426    0.608773 H         1 <1>         0.210020 
    111 H           7.323285  -26.192593   -1.412711 H         1 <1>         0.210005 
    112 H           8.583033  -23.365598    1.618456 H         1 <1>         0.072940 
    113 H          11.510814  -24.708565   -0.729525 H         1 <1>         0.093767 
    114 H          10.781903  -22.877260   -2.201668 H         1 <1>         0.067096 
    115 H           8.881958  -21.599764   -1.792437 H         1 <1>         0.064771 
    116 H           7.727612  -23.681693   -1.305234 H         1 <1>         0.065129 
    117 H           5.937454  -25.898543    1.804246 H         1 <1>         0.220293 
    118 H           9.643263  -21.434644    0.960498 H         1 <1>         0.210005 
    119 H           6.626989  -21.637379   -0.606573 H         1 <1>         0.210020 
    120 H          11.623708  -21.343375   -0.503076 H         1 <1>         0.210110 
    121 H          13.637896  -23.752003    0.441705 H         1 <1>         0.209420 
@<TRIPOS>BOND
     1    1    2 1    
     2    6    1 1    
     3    1   24 1    
     4    1   25 1    
     5    3    2 1    
     6    2   60 1    
     7    2   61 1    
     8    4    3 1    
     9    3   62 1    
    10    3   63 1    
    11    5    4 1    
    12    7    4 1    
    13    4   30 1    
    14    5    6 1    
    15   10    5 1    
    16    5   64 1    
    17    6   65 1    
    18    6   66 1    
    19    8    7 1    
    20    7   67 1    
    21    7   68 1    
    22    9    8 1    
    23    8   69 1    
    24    8   70 1    
    25    9   10 1    
    26   11    9 1    
    27    9   29 1    
    28   14   10 2    
    29   12   11 1    
    30   15   11 1    
    31   11   28 1    
    32   12   13 1    
    33   18   12 1    
    34   12   71 1    
    35   13   14 1    
    36   13   58 2    
    37   14   72 1    
    38   16   15 1    
    39   15   73 1    
    40   15   74 1    
    41   17   16 1    
    42   16   75 1    
    43   16   76 1    
    44   17   18 1    
    45   19   17 1    
    46   17   77 1    
    47   22   18 1    
    48   18   27 1    
    49   20   19 1    
    50   19   31 1    
    51   19   32 1    
    52   20   21 1    
    53   33   20 1    
    54   20   78 1    
    55   21   22 1    
    56   21   79 1    
    57   21   80 1    
    58   22   81 1    
    59   22   82 1    
    60   25   23 1    
    61   23   83 1    
    62   24   84 1    
    63   24   85 1    
    64   24   86 1    
    65   25   26 2    
    66   27   87 1    
    67   27   88 1    
    68   27   89 1    
    69   28   90 1    
    70   28   91 1    
    71   28   92 1    
    72   29   93 1    
    73   29   94 1    
    74   29   95 1    
    75   30   96 1    
    76   30   97 1    
    77   30   98 1    
    78   31   59 1    
    79   31   99 1    
    80   31  100 1    
    81   32  101 1    
    82   32  102 1    
    83   32  103 1    
    84   37   33 1    
    85   34   35 1    
    86   39   34 1    
    87   34   43 1    
    88   34  104 1    
    89   36   35 1    
    90   35   40 1    
    91   35  105 1    
    92   37   36 1    
    93   38   37 1    
    94   37  106 1    
    95   38   39 1    
    96   54   38 1    
    97   38  107 1    
    98   39   44 1    
    99   39  108 1    
   100   40   41 1    
   101   40   42 2    
   102   41  109 1    
   103   43  110 1    
   104   44  111 1    
   105   46   45 1    
   106   45   50 1    
   107   45   51 1    
   108   45  112 1    
   109   47   46 1    
   110   47   48 1    
   111   47   54 1    
   112   47  113 1    
   113   48   49 1    
   114   48   57 1    
   115   48  114 1    
   116   49   50 1    
   117   49   55 1    
   118   49  115 1    
   119   50   56 1    
   120   50  116 1    
   121   51   52 1    
   122   51   53 2    
   123   52  117 1    
   124   55  118 1    
   125   56  119 1    
   126   57  120 1    
   127   59  121 1    
@<TRIPOS>SUBSTRUCTURE
     1 ****       45 TEMP              0 ****  ****    0 ROOT 
@<TRIPOS>NORMAL
@<TRIPOS>FF_PBC
FORCE_FIELD_SETUP_FEATURE Force Field Setup information
v1.0  0 0.000000 0.000000 0.000000 0.000000 0.000000 0.000000 NONE 0 0 0 0 1 0 0 0 0 0 0 0 0
