@<TRIPOS>MOLECULE
MOL004068
   51    54     1     1     0
SMALL
GASTEIGER


@<TRIPOS>ATOM
      1 O           0.457216    1.276937   -1.178786 O.3       1 <1>        -0.307260 
      2 O          -3.525580   -1.554746   -0.098258 O.2       1 <1>        -0.297084 
      3 O          -0.093579    2.951662   -2.573295 O.2       1 <1>        -0.264334 
      4 C          -0.010537    0.781994    0.092991 C.3       1 <1>         0.089018 
      5 C           0.105562   -0.805884    0.137600 C.3       1 <1>         0.007402 
      6 C          -1.471531    1.318968    0.114982 C.3       1 <1>         0.010303 
      7 C          -1.269942    2.735291   -0.481198 C.3       1 <1>         0.059181 
      8 C          -1.238607   -1.459638    0.611206 C.3       1 <1>         0.026304 
      9 C           0.751827    1.571378    1.216129 C.3       1 <1>        -0.022281 
     10 C           0.411800   -1.362716   -1.293754 C.3       1 <1>        -0.043552 
     11 C          -2.430167    0.432704   -0.711177 C.3       1 <1>         0.012567 
     12 C          -0.608820    3.648380    0.589091 C.3       1 <1>        -0.038127 
     13 C          -1.237932   -3.020145    0.517170 C.3       1 <1>        -0.034047 
     14 C           0.789613    3.104977    0.970284 C.3       1 <1>        -0.049437 
     15 C          -2.479998   -0.925449   -0.074418 C.2       1 <1>         0.137437 
     16 C          -0.937810   -3.542909   -0.923350 C.3       1 <1>        -0.013635 
     17 C           0.400447   -2.914123   -1.414383 C.3       1 <1>        -0.043558 
     18 C           1.280349   -1.245529    1.079575 C.3       1 <1>        -0.056259 
     19 C          -0.247369    2.361568   -1.517309 C.2       1 <1>         0.269022 
     20 C          -2.542220    3.411515   -1.062500 C.3       1 <1>        -0.050128 
     21 C          -0.775789   -5.092908   -0.885871 C.3       1 <1>        -0.056085 
     22 C          -2.139543   -3.308469   -1.827360 C.2       1 <1>        -0.085163 
     23 C          -2.149019   -2.787028   -3.062885 C.2       1 <1>        -0.102112 
     24 H          -1.888496    1.367886    1.135665 H         1 <1>         0.034310 
     25 H          -1.376723   -1.190831    1.671314 H         1 <1>         0.038379 
     26 H           0.280696    1.377041    2.193248 H         1 <1>         0.029335 
     27 H           1.812541    1.291550    1.283558 H         1 <1>         0.029335 
     28 H           1.401539   -1.005252   -1.622871 H         1 <1>         0.027187 
     29 H          -0.317649   -0.970645   -2.009819 H         1 <1>         0.027187 
     30 H          -3.449000    0.847597   -0.654032 H         1 <1>         0.034554 
     31 H          -2.153761    0.370277   -1.772292 H         1 <1>         0.034554 
     32 H          -1.253896    3.699515    1.481242 H         1 <1>         0.027544 
     33 H          -0.488654    4.673655    0.201576 H         1 <1>         0.027544 
     34 H          -2.208350   -3.415584    0.859103 H         1 <1>         0.028035 
     35 H          -0.504157   -3.440572    1.217749 H         1 <1>         0.028035 
     36 H           1.164759    3.630384    1.865409 H         1 <1>         0.026646 
     37 H           1.494194    3.323316    0.148620 H         1 <1>         0.026646 
     38 H           0.596540   -3.213877   -2.455971 H         1 <1>         0.027367 
     39 H           1.237165   -3.330541   -0.836557 H         1 <1>         0.027367 
     40 H           1.426522   -2.325634    1.167556 H         1 <1>         0.023616 
     41 H           2.238267   -0.855460    0.705159 H         1 <1>         0.023616 
     42 H           1.117974   -0.891898    2.107896 H         1 <1>         0.023616 
     43 H          -2.298087    4.418192   -1.435268 H         1 <1>         0.023996 
     44 H          -2.951978    2.841029   -1.908866 H         1 <1>         0.023996 
     45 H          -3.311250    3.501843   -0.280173 H         1 <1>         0.023996 
     46 H          -1.691594   -5.576406   -0.510130 H         1 <1>         0.023803 
     47 H          -0.572254   -5.476712   -1.898027 H         1 <1>         0.023803 
     48 H           0.057758   -5.393404   -0.232095 H         1 <1>         0.023803 
     49 H          -3.110160   -3.617962   -1.435183 H         1 <1>         0.057177 
     50 H          -1.268186   -2.455244   -3.605045 H         1 <1>         0.053192 
     51 H          -3.095697   -2.680485   -3.593998 H         1 <1>         0.053192 
@<TRIPOS>BOND
     1    4    1 1    
     2    1   19 1    
     3   15    2 2    
     4   19    3 2    
     5    5    4 1    
     6    4    6 1    
     7    4    9 1    
     8    8    5 1    
     9    5   10 1    
    10    5   18 1    
    11    6    7 1    
    12    6   11 1    
    13    6   24 1    
    14    7   12 1    
    15    7   19 1    
    16    7   20 1    
    17    8   13 1    
    18    8   15 1    
    19    8   25 1    
    20    9   14 1    
    21    9   26 1    
    22    9   27 1    
    23   10   17 1    
    24   10   28 1    
    25   10   29 1    
    26   11   15 1    
    27   11   30 1    
    28   11   31 1    
    29   12   14 1    
    30   12   32 1    
    31   12   33 1    
    32   13   16 1    
    33   13   34 1    
    34   13   35 1    
    35   14   36 1    
    36   14   37 1    
    37   16   17 1    
    38   16   21 1    
    39   16   22 1    
    40   17   38 1    
    41   17   39 1    
    42   18   40 1    
    43   18   41 1    
    44   18   42 1    
    45   20   43 1    
    46   20   44 1    
    47   20   45 1    
    48   21   46 1    
    49   21   47 1    
    50   21   48 1    
    51   22   23 2    
    52   22   49 1    
    53   23   50 1    
    54   23   51 1    
@<TRIPOS>SUBSTRUCTURE
     1 ****        1 TEMP              0 ****  ****    0 ROOT 
@<TRIPOS>NORMAL
@<TRIPOS>FF_PBC
FORCE_FIELD_SETUP_FEATURE Force Field Setup information
v1.0  0 0.000000 0.000000 0.000000 0.000000 0.000000 0.000000 NONE 0 0 0 0 1 0 0 0 0 0 0 0 0
