@<TRIPOS>MOLECULE
MOL006287
   39    40     1     1     0
SMALL
GASTEIGER


@<TRIPOS>ATOM
      1 C           0.132003   -0.255657    0.732736 C.3       1 <1>        -0.012816 
      2 C           1.386802    0.441493    0.123342 C.3       1 <1>        -0.028460 
      3 C          -0.972200    0.803905    1.031142 C.3       1 <1>        -0.013345 
      4 C          -2.287059    0.049926    1.362191 C.3       1 <1>        -0.042294 
      5 C           0.950254    1.068819   -1.230444 C.3       1 <1>        -0.030882 
      6 C           2.661826   -0.464551   -0.033192 C.3       1 <1>        -0.043057 
      7 C          -1.139712    1.833403   -0.070316 C.2       1 <1>        -0.072867 
      8 C          -0.365825   -1.394568   -0.132657 C.2       1 <1>        -0.081089 
      9 C          -2.759624   -0.746118    0.121229 C.3       1 <1>        -0.031439 
     10 C          -0.283192    1.922828   -1.096484 C.2       1 <1>        -0.084455 
     11 C          -1.655647   -1.616843   -0.423759 C.2       1 <1>        -0.076221 
     12 C           3.925542    0.370504   -0.404280 C.3       1 <1>        -0.062386 
     13 C           2.977338   -1.280253    1.255619 C.3       1 <1>        -0.062386 
     14 C          -2.313456    2.785852    0.047934 C.3       1 <1>        -0.043506 
     15 C          -2.097196   -2.753382   -1.319392 C.3       1 <1>        -0.043778 
     16 H           0.385945   -0.701689    1.706750 H         1 <1>         0.035161 
     17 H           1.656364    1.260965    0.811506 H         1 <1>         0.031203 
     18 H          -0.672008    1.381541    1.922920 H         1 <1>         0.035135 
     19 H          -3.078457    0.738377    1.698501 H         1 <1>         0.027417 
     20 H          -2.098697   -0.656763    2.188034 H         1 <1>         0.027417 
     21 H           0.756420    0.288297   -1.982260 H         1 <1>         0.031034 
     22 H           1.740339    1.730313   -1.613840 H         1 <1>         0.031034 
     23 H           2.513489   -1.183905   -0.855469 H         1 <1>         0.029841 
     24 H           0.372003   -2.084088   -0.537709 H         1 <1>         0.057459 
     25 H          -3.083183   -0.075250   -0.688000 H         1 <1>         0.031008 
     26 H          -3.622148   -1.366143    0.415218 H         1 <1>         0.031008 
     27 H          -0.462808    2.652693   -1.887688 H         1 <1>         0.057172 
     28 H           4.104210    1.151760    0.350243 H         1 <1>         0.023242 
     29 H           4.818959   -0.271664   -0.449202 H         1 <1>         0.023242 
     30 H           3.834516    0.846504   -1.390325 H         1 <1>         0.023242 
     31 H           3.020908   -0.610136    2.127938 H         1 <1>         0.023242 
     32 H           3.945326   -1.797740    1.169696 H         1 <1>         0.023242 
     33 H           2.222655   -2.059811    1.436196 H         1 <1>         0.023242 
     34 H          -2.209510    3.654519   -0.619665 H         1 <1>         0.027445 
     35 H          -2.376430    3.169325    1.077352 H         1 <1>         0.027445 
     36 H          -3.259408    2.286256   -0.202641 H         1 <1>         0.027445 
     37 H          -1.253110   -3.309138   -1.754912 H         1 <1>         0.027436 
     38 H          -2.702882   -2.350991   -2.145269 H         1 <1>         0.027436 
     39 H          -2.711645   -3.459692   -0.741244 H         1 <1>         0.027436 
@<TRIPOS>BOND
     1    1    2 1    
     2    1    3 1    
     3    1    8 1    
     4    1   16 1    
     5    2    5 1    
     6    2    6 1    
     7    2   17 1    
     8    3    4 1    
     9    3    7 1    
    10    3   18 1    
    11    4    9 1    
    12    4   19 1    
    13    4   20 1    
    14    5   10 1    
    15    5   21 1    
    16    5   22 1    
    17    6   12 1    
    18    6   13 1    
    19    6   23 1    
    20    7   10 2    
    21    7   14 1    
    22    8   11 2    
    23    8   24 1    
    24    9   11 1    
    25    9   25 1    
    26    9   26 1    
    27   10   27 1    
    28   11   15 1    
    29   12   28 1    
    30   12   29 1    
    31   12   30 1    
    32   13   31 1    
    33   13   32 1    
    34   13   33 1    
    35   14   34 1    
    36   14   35 1    
    37   14   36 1    
    38   15   37 1    
    39   15   38 1    
    40   15   39 1    
@<TRIPOS>SUBSTRUCTURE
     1 ****        1 TEMP              0 ****  ****    0 ROOT 
@<TRIPOS>NORMAL
@<TRIPOS>FF_PBC
FORCE_FIELD_SETUP_FEATURE Force Field Setup information
v1.0  0 0.000000 0.000000 0.000000 0.000000 0.000000 0.000000 NONE 0 0 0 0 1 0 0 0 0 0 0 0 0
