@<TRIPOS>MOLECULE
MOL004681
   28    28     1     1     0
SMALL
GASTEIGER


@<TRIPOS>ATOM
      1 O           1.111807   -0.671370    0.288897 O.3       1 <1>        -0.308253 
      2 O           2.682155   -2.223044    0.241936 O.2       1 <1>        -0.259880 
      3 C          -0.635873    1.017232    0.251754 C.3       1 <1>        -0.025707 
      4 C           0.798940    0.645255   -0.209272 C.3       1 <1>         0.071792 
      5 C          -1.687918    0.002071   -0.274267 C.3       1 <1>        -0.050698 
      6 C          -3.120762    0.377345    0.193875 C.3       1 <1>        -0.053225 
      7 C           1.832035    1.700604    0.264811 C.3       1 <1>        -0.007285 
      8 C          -4.172556   -0.635472   -0.335494 C.3       1 <1>        -0.055910 
      9 C           3.194313    1.238655   -0.173838 C.2       1 <1>        -0.075906 
     10 C          -5.602293   -0.262428    0.135816 C.3       1 <1>        -0.065276 
     11 C           2.384490   -1.049129    0.097451 C.2       1 <1>         0.286547 
     12 C           3.433405   -0.073748   -0.257722 C.2       1 <1>         0.006111 
     13 H          -0.889232    2.026035   -0.113282 H         1 <1>         0.029037 
     14 H          -0.660230    1.029983    1.353367 H         1 <1>         0.029037 
     15 H           0.816626    0.611779   -1.313442 H         1 <1>         0.060509 
     16 H          -1.658011   -0.016095   -1.376082 H         1 <1>         0.026608 
     17 H          -1.439820   -1.007074    0.093778 H         1 <1>         0.026608 
     18 H          -3.152128    0.391474    1.295863 H         1 <1>         0.026521 
     19 H          -3.372435    1.386485   -0.171812 H         1 <1>         0.026521 
     20 H           1.818096    1.798696    1.361360 H         1 <1>         0.033260 
     21 H           1.601808    2.679675   -0.185684 H         1 <1>         0.033260 
     22 H          -4.149179   -0.649855   -1.438028 H         1 <1>         0.026265 
     23 H          -3.926704   -1.647382    0.027773 H         1 <1>         0.026265 
     24 H           3.973705    1.964750   -0.411233 H         1 <1>         0.057465 
     25 H          -5.656728   -0.263174    1.235661 H         1 <1>         0.022978 
     26 H          -6.331420   -0.991857   -0.251288 H         1 <1>         0.022978 
     27 H          -5.879402    0.738077   -0.231319 H         1 <1>         0.022978 
     28 H           4.409111   -0.444388   -0.571977 H         1 <1>         0.067402 
@<TRIPOS>BOND
     1    1    4 1    
     2    1   11 1    
     3   11    2 2    
     4    4    3 1    
     5    3    5 1    
     6    3   13 1    
     7    3   14 1    
     8    4    7 1    
     9    4   15 1    
    10    5    6 1    
    11    5   16 1    
    12    5   17 1    
    13    6    8 1    
    14    6   18 1    
    15    6   19 1    
    16    7    9 1    
    17    7   20 1    
    18    7   21 1    
    19    8   10 1    
    20    8   22 1    
    21    8   23 1    
    22    9   12 2    
    23    9   24 1    
    24   10   25 1    
    25   10   26 1    
    26   10   27 1    
    27   11   12 1    
    28   12   28 1    
@<TRIPOS>SUBSTRUCTURE
     1 ****        1 TEMP              0 ****  ****    0 ROOT 
@<TRIPOS>NORMAL
@<TRIPOS>FF_PBC
FORCE_FIELD_SETUP_FEATURE Force Field Setup information
v1.0  0 0.000000 0.000000 0.000000 0.000000 0.000000 0.000000 NONE 0 0 0 0 1 0 0 0 0 0 0 0 0
