@<TRIPOS>MOLECULE
MOL001955
   43    44     1     1     0
SMALL
GASTEIGER


@<TRIPOS>ATOM
      1 O          -0.793895    0.978295   -0.217655 O.3       1 <1>        -0.305768 
      2 O          -4.306300   -0.900162    1.527791 O.3       1 <1>        -0.378361 
      3 O          -2.783143    2.987839   -0.454856 O.3       1 <1>        -0.386644 
      4 O          -4.837880    1.631804    0.965055 O.3       1 <1>        -0.389039 
      5 O          -4.078521   -2.864905   -1.535460 O.3       1 <1>        -0.329104 
      6 O          -4.638830   -3.393593    0.567278 O.2       1 <1>        -0.261963 
      7 O          -0.126480   -0.150693    1.599444 O.2       1 <1>        -0.259868 
      8 O           7.255695   -1.652646    1.314701 O.3       1 <1>        -0.357261 
      9 O           8.208493    0.192278   -0.578114 O.3       1 <1>        -0.357274 
     10 C          -3.986086   -1.122734    0.139448 C.3       1 <1>         0.155106 
     11 C          -2.156867    0.685383    0.167317 C.3       1 <1>         0.099678 
     12 C          -2.489116   -0.804537   -0.120523 C.3       1 <1>         0.014920 
     13 C          -4.879954   -0.181557   -0.712763 C.3       1 <1>         0.014057 
     14 C          -3.061223    1.595973   -0.705567 C.3       1 <1>         0.107846 
     15 C          -4.558604    1.307238   -0.410849 C.3       1 <1>         0.086606 
     16 C          -4.266962   -2.563687   -0.247030 C.2       1 <1>         0.291720 
     17 C           0.152067    0.436146    0.565729 C.2       1 <1>         0.286936 
     18 C           1.568146    0.556049    0.168921 C.2       1 <1>         0.010502 
     19 C           2.585574    0.056300    0.883951 C.2       1 <1>        -0.048856 
     20 C           4.046550    0.148665    0.487640 C.ar      1 <1>        -0.022259 
     21 C           4.948305   -0.755036    1.073695 C.ar      1 <1>        -0.022249 
     22 C           4.559124    1.147979   -0.485833 C.ar      1 <1>        -0.051998 
     23 C           6.385414   -0.739795    0.715914 C.ar      1 <1>         0.102746 
     24 C           5.921927    1.165156   -0.839161 C.ar      1 <1>        -0.028849 
     25 C           6.859075    0.192371   -0.229839 C.ar      1 <1>         0.102220 
     26 H          -2.341973    0.943830    1.223699 H         1 <1>         0.062988 
     27 H          -2.237240   -1.015465   -1.171634 H         1 <1>         0.032407 
     28 H          -1.881266   -1.467955    0.511075 H         1 <1>         0.032407 
     29 H          -5.941582   -0.374200   -0.485203 H         1 <1>         0.032382 
     30 H          -4.721259   -0.376338   -1.787226 H         1 <1>         0.032382 
     31 H          -2.855298    1.383704   -1.769356 H         1 <1>         0.064521 
     32 H          -5.179115    1.954733   -1.057919 H         1 <1>         0.062084 
     33 H          -3.837431   -1.478973    2.120740 H         1 <1>         0.210848 
     34 H          -1.862223    3.199816   -0.575874 H         1 <1>         0.210001 
     35 H          -5.743093    1.481559    1.219541 H         1 <1>         0.209891 
     36 H          -4.258146   -3.781584   -1.714800 H         1 <1>         0.220301 
     37 H           1.720610    1.079787   -0.771734 H         1 <1>         0.067735 
     38 H           2.359043   -0.465987    1.814053 H         1 <1>         0.062526 
     39 H           4.598314   -1.484465    1.794515 H         1 <1>         0.064993 
     40 H           3.897368    1.880544   -0.931520 H         1 <1>         0.062425 
     41 H           6.295582    1.893366   -1.551420 H         1 <1>         0.064421 
     42 H           8.150820   -1.519363    1.017150 H         1 <1>         0.217422 
     43 H           8.312380    0.195963   -1.523019 H         1 <1>         0.217422 
@<TRIPOS>BOND
     1    1   11 1    
     2   17    1 1    
     3   10    2 1    
     4    2   33 1    
     5   14    3 1    
     6    3   34 1    
     7   15    4 1    
     8    4   35 1    
     9   16    5 1    
    10    5   36 1    
    11   16    6 2    
    12   17    7 2    
    13   23    8 1    
    14    8   42 1    
    15   25    9 1    
    16    9   43 1    
    17   12   10 1    
    18   10   13 1    
    19   10   16 1    
    20   11   12 1    
    21   11   14 1    
    22   11   26 1    
    23   12   27 1    
    24   12   28 1    
    25   15   13 1    
    26   13   29 1    
    27   13   30 1    
    28   14   15 1    
    29   14   31 1    
    30   15   32 1    
    31   18   17 1    
    32   19   18 2    
    33   18   37 1    
    34   20   19 1    
    35   19   38 1    
    36   21   20 2    
    37   20   22 1    
    38   23   21 1    
    39   21   39 1    
    40   22   24 2    
    41   22   40 1    
    42   23   25 2    
    43   24   25 1    
    44   24   41 1    
@<TRIPOS>SUBSTRUCTURE
     1 ****        1 TEMP              0 ****  ****    0 ROOT 
@<TRIPOS>NORMAL
@<TRIPOS>FF_PBC
FORCE_FIELD_SETUP_FEATURE Force Field Setup information
v1.0  0 0.000000 0.000000 0.000000 0.000000 0.000000 0.000000 NONE 0 0 0 0 1 0 0 0 0 0 0 0 0
