@<TRIPOS>MOLECULE
MOL000911
   26    26     1     1     0
SMALL
GASTEIGER


@<TRIPOS>ATOM
      1 C           0.258048    0.527724   -0.109870 C.2       1 <1>        -0.066673 
      2 C           0.896824   -0.649465   -0.093314 C.2       1 <1>        -0.062307 
      3 C           0.166263   -1.916139   -0.273145 C.2       1 <1>        -0.062799 
      4 C          -1.164543   -1.965194   -0.139528 C.2       1 <1>        -0.072322 
      5 C          -1.931248   -0.717740    0.224375 C.3       1 <1>        -0.028008 
      6 C          -1.240023    0.561697   -0.316695 C.3       1 <1>        -0.027518 
      7 C           0.972790    1.857533    0.055206 C.3       1 <1>        -0.025261 
      8 C          -1.966335   -3.233977   -0.313335 C.3       1 <1>        -0.043484 
      9 C           1.434926    2.019589    1.526787 C.3       1 <1>        -0.058945 
     10 C           2.163102    2.012611   -0.931104 C.3       1 <1>        -0.058945 
     11 H           1.974733   -0.710977    0.047175 H         1 <1>         0.061724 
     12 H           0.738551   -2.812807   -0.511653 H         1 <1>         0.061707 
     13 H          -1.974974   -0.680367    1.324794 H         1 <1>         0.031303 
     14 H          -2.963586   -0.757213   -0.160230 H         1 <1>         0.031303 
     15 H          -1.702809    1.429714    0.180804 H         1 <1>         0.031320 
     16 H          -1.412739    0.650513   -1.401136 H         1 <1>         0.031320 
     17 H           0.277297    2.683382   -0.176075 H         1 <1>         0.034035 
     18 H          -2.539777   -3.432741    0.604554 H         1 <1>         0.027445 
     19 H          -2.667757   -3.114729   -1.152712 H         1 <1>         0.027445 
     20 H          -1.327442   -4.106349   -0.518242 H         1 <1>         0.027445 
     21 H           1.910696    3.001486    1.675478 H         1 <1>         0.023536 
     22 H           0.569160    1.943257    2.203321 H         1 <1>         0.023536 
     23 H           2.159058    1.235252    1.794697 H         1 <1>         0.023536 
     24 H           2.574612    3.032746   -0.872929 H         1 <1>         0.023536 
     25 H           1.818986    1.834388   -1.961990 H         1 <1>         0.023536 
     26 H           2.976287    1.307904   -0.705329 H         1 <1>         0.023536 
@<TRIPOS>BOND
     1    1    2 2    
     2    1    6 1    
     3    1    7 1    
     4    2    3 1    
     5    2   11 1    
     6    3    4 2    
     7    3   12 1    
     8    4    5 1    
     9    4    8 1    
    10    5    6 1    
    11    5   13 1    
    12    5   14 1    
    13    6   15 1    
    14    6   16 1    
    15    7    9 1    
    16    7   10 1    
    17    7   17 1    
    18    8   18 1    
    19    8   19 1    
    20    8   20 1    
    21    9   21 1    
    22    9   22 1    
    23    9   23 1    
    24   10   24 1    
    25   10   25 1    
    26   10   26 1    
@<TRIPOS>SUBSTRUCTURE
     1 ****        1 TEMP              0 ****  ****    0 ROOT 
@<TRIPOS>NORMAL
@<TRIPOS>FF_PBC
FORCE_FIELD_SETUP_FEATURE Force Field Setup information
v1.0  0 0.000000 0.000000 0.000000 0.000000 0.000000 0.000000 NONE 0 0 0 0 1 0 0 0 0 0 0 0 0
