@<TRIPOS>MOLECULE
MOL004827
   42    45     1     1     0
SMALL
GASTEIGER


@<TRIPOS>ATOM
      1 C          -3.817716    0.656873   -0.542849 C.ar      1 <1>         0.082515 
      2 C          -4.357526   -0.707721   -0.370464 C.ar      1 <1>         0.098059 
      3 C          -5.742021   -0.893453   -0.339534 C.ar      1 <1>        -0.000556 
      4 C          -6.657653    0.271789   -0.462880 C.ar      1 <1>         0.077519 
      5 C          -6.131393    1.559268   -0.606387 C.ar      1 <1>        -0.001302 
      6 C          -4.664263    1.770437   -0.647401 C.ar      1 <1>         0.088332 
      7 O          -8.043041    0.102194   -0.443559 O.3       1 <1>        -0.359667 
      8 O          -4.118798    3.049278   -0.788335 O.3       1 <1>        -0.358955 
      9 O          -3.496946   -1.802674   -0.233672 O.3       1 <1>        -0.315268 
     10 C          -2.160716   -1.657340   -0.195310 C.2       1 <1>         0.058256 
     11 C          -2.320016    0.766751   -0.591952 C.2       1 <1>         0.200573 
     12 C          -1.565448   -0.467578   -0.352488 C.2       1 <1>         0.052750 
     13 O          -1.744402    1.823536   -0.808131 O.2       1 <1>        -0.286389 
     14 C          -0.068227   -0.295286   -0.284235 C.ar      1 <1>        -0.009145 
     15 C           0.669709    0.071285   -1.515655 C.ar      1 <1>        -0.021464 
     16 C           2.041251    0.352526   -1.458029 C.ar      1 <1>         0.103657 
     17 C           2.740944    0.270935   -0.150529 C.ar      1 <1>         0.114009 
     18 C           2.050925   -0.151216    0.992542 C.ar      1 <1>         0.007908 
     19 C           0.602108   -0.442550    0.932654 C.ar      1 <1>        -0.044068 
     20 O           4.088646    0.615837   -0.051863 O.3       1 <1>        -0.331642 
     21 C           4.852829   -0.186085    0.864060 C.3       1 <1>         0.088944 
     22 C           4.158880   -0.286646    2.204797 C.2       1 <1>        -0.051994 
     23 C           2.826939   -0.284654    2.280619 C.2       1 <1>        -0.053275 
     24 C           6.217010    0.530611    1.031084 C.3       1 <1>        -0.031935 
     25 C           5.029812   -1.611300    0.273635 C.3       1 <1>        -0.031935 
     26 O           2.758887    0.700823   -2.609138 O.3       1 <1>        -0.357242 
     27 H          -6.141197   -1.896031   -0.224710 H         1 <1>         0.066947 
     28 H          -6.806024    2.402974   -0.695474 H         1 <1>         0.066923 
     29 H          -8.314093   -0.804365   -0.372645 H         1 <1>         0.217316 
     30 H          -4.749876    3.748004   -0.659568 H         1 <1>         0.217342 
     31 H          -1.556883   -2.550957   -0.032866 H         1 <1>         0.089749 
     32 H           0.132341    0.117196   -2.456136 H         1 <1>         0.065014 
     33 H           0.060659   -0.740809    1.822728 H         1 <1>         0.063033 
     34 H           4.749204   -0.382571    3.117362 H         1 <1>         0.060052 
     35 H           2.297163   -0.383280    3.228904 H         1 <1>         0.062203 
     36 H           6.059976    1.525253    1.478847 H         1 <1>         0.026052 
     37 H           6.895436   -0.050380    1.674035 H         1 <1>         0.026052 
     38 H           6.688489    0.663808    0.045601 H         1 <1>         0.026052 
     39 H           5.597268   -2.250829    0.967767 H         1 <1>         0.026052 
     40 H           4.052538   -2.084521    0.086087 H         1 <1>         0.026052 
     41 H           5.568946   -1.557179   -0.684379 H         1 <1>         0.026052 
     42 H           2.316477    0.488049   -3.422635 H         1 <1>         0.217422 
@<TRIPOS>BOND
     1    1    2 1    
     2    1    6 2    
     3    1   11 1    
     4    2    3 2    
     5    2    9 1    
     6    3    4 1    
     7    3   27 1    
     8    4    5 2    
     9    4    7 1    
    10    5    6 1    
    11    5   28 1    
    12    6    8 1    
    13    7   29 1    
    14    8   30 1    
    15    9   10 1    
    16   10   12 2    
    17   10   31 1    
    18   11   12 1    
    19   11   13 2    
    20   12   14 1    
    21   14   15 1    
    22   14   19 2    
    23   15   16 2    
    24   15   32 1    
    25   16   17 1    
    26   16   26 1    
    27   17   18 2    
    28   17   20 1    
    29   18   19 1    
    30   18   23 1    
    31   19   33 1    
    32   20   21 1    
    33   21   22 1    
    34   21   24 1    
    35   21   25 1    
    36   22   23 2    
    37   22   34 1    
    38   23   35 1    
    39   24   36 1    
    40   24   37 1    
    41   24   38 1    
    42   25   39 1    
    43   25   40 1    
    44   25   41 1    
    45   26   42 1    
@<TRIPOS>SUBSTRUCTURE
     1 ****        1 TEMP              0 ****  ****    0 ROOT 
@<TRIPOS>NORMAL
@<TRIPOS>FF_PBC
FORCE_FIELD_SETUP_FEATURE Force Field Setup information
v1.0  0 0.000000 0.000000 0.000000 0.000000 0.000000 0.000000 NONE 0 0 0 0 1 0 0 0 0 0 0 0 0
