@<TRIPOS>MOLECULE
MOL004889
   79    84     1     1     0
SMALL
GASTEIGER


@<TRIPOS>ATOM
      1 C           2.779640   -4.401748    1.792371 C.3       1 <1>         0.056271 
      2 C           3.984933   -3.422190    1.798248 C.3       1 <1>        -0.011012 
      3 C           3.627621   -2.632569    3.080611 C.3       1 <1>         0.074936 
      4 C           2.338221   -1.735536    2.920636 C.3       1 <1>         0.001335 
      5 C           1.529798   -2.101316    1.653649 C.3       1 <1>        -0.010638 
      6 C           1.425606   -3.656182    1.504610 C.3       1 <1>        -0.031361 
      7 C           2.788911   -0.240314    2.722916 C.3       1 <1>        -0.043901 
      8 C           1.976118    0.611034    1.678128 C.3       1 <1>        -0.042809 
      9 C           0.429548    0.344884    1.623291 C.3       1 <1>        -0.005117 
     10 C           0.323339   -1.188367    1.375673 C.2       1 <1>        -0.063305 
     11 C          -0.410381    1.206359    0.522012 C.3       1 <1>        -0.019373 
     12 C          -0.961148    0.251990   -0.598066 C.3       1 <1>        -0.025736 
     13 C          -1.785092   -0.868034    0.127008 C.3       1 <1>        -0.030614 
     14 C          -0.769678   -1.731350    0.826472 C.2       1 <1>        -0.083646 
     15 C           0.508794    2.200723   -0.282655 C.3       1 <1>        -0.046268 
     16 C          -0.149066    3.022666   -1.441265 C.3       1 <1>        -0.048609 
     17 C          -1.489322    2.445185   -1.984765 C.3       1 <1>        -0.027836 
     18 C          -1.520847    0.870169   -1.973174 C.3       1 <1>        -0.024959 
     19 C          -2.138195    3.239774   -3.190052 C.3       1 <1>        -0.005589 
     20 C          -3.599767    2.716710   -3.381189 C.3       1 <1>         0.060637 
     21 C          -3.669977    1.168933   -3.473074 C.3       1 <1>        -0.025831 
     22 C          -3.006903    0.459962   -2.255592 C.3       1 <1>        -0.044720 
     23 O           3.422294   -3.734061    3.973658 O.3       1 <1>        -0.310871 
     24 C           3.021235   -5.671371    0.909457 C.3       1 <1>        -0.050390 
     25 C           2.870542   -4.720118    3.268446 C.2       1 <1>         0.268488 
     26 O           2.527320   -5.772022    3.782836 O.2       1 <1>        -0.264354 
     27 C          -0.639554    0.284148   -3.131427 C.3       1 <1>        -0.059009 
     28 C          -1.650437    2.013859    1.107173 C.3       1 <1>        -0.058491 
     29 C          -0.012186    0.759625    3.072579 C.3       1 <1>        -0.055324 
     30 C           1.387136   -2.003168    4.141724 C.3       1 <1>        -0.056635 
     31 C          -2.248421    4.762725   -2.823435 C.3       1 <1>        -0.057190 
     32 C          -1.373442    3.204405   -4.556553 C.3       1 <1>        -0.057190 
     33 O          -4.165637    3.307169   -4.567345 O.3       1 <1>        -0.391248 
     34 H           4.935125   -3.959500    1.966404 H         1 <1>         0.030059 
     35 H           4.118211   -2.824251    0.885710 H         1 <1>         0.030059 
     36 H           4.478958   -2.072325    3.501429 H         1 <1>         0.060788 
     37 H           2.135821   -1.839814    0.776271 H         1 <1>         0.035217 
     38 H           1.117750   -3.861205    0.467172 H         1 <1>         0.028123 
     39 H           0.640988   -4.058816    2.164062 H         1 <1>         0.028123 
     40 H           2.865945    0.245943    3.707777 H         1 <1>         0.027177 
     41 H           3.819121   -0.214218    2.329078 H         1 <1>         0.027177 
     42 H           2.409483    0.409397    0.687716 H         1 <1>         0.027393 
     43 H           2.187396    1.666667    1.913356 H         1 <1>         0.027393 
     44 H          -0.036548   -0.262484   -0.908835 H         1 <1>         0.031460 
     45 H          -2.267651   -1.528739   -0.605374 H         1 <1>         0.031042 
     46 H          -2.552144   -0.526466    0.836629 H         1 <1>         0.031042 
     47 H          -0.938628   -2.806993    0.773738 H         1 <1>         0.057198 
     48 H           0.978940    2.913389    0.413654 H         1 <1>         0.027096 
     49 H           1.318529    1.639536   -0.772174 H         1 <1>         0.027096 
     50 H           0.571914    3.127374   -2.267273 H         1 <1>         0.026846 
     51 H          -0.326753    4.043985   -1.062954 H         1 <1>         0.026846 
     52 H          -2.216977    2.734278   -1.232382 H         1 <1>         0.031210 
     53 H          -4.209383    3.025334   -2.511990 H         1 <1>         0.059852 
     54 H          -3.237164    0.830807   -4.424034 H         1 <1>         0.029037 
     55 H          -4.733715    0.874950   -3.505312 H         1 <1>         0.029037 
     56 H          -3.083871   -0.616578   -2.473680 H         1 <1>         0.027149 
     57 H          -3.619085    0.672703   -1.364574 H         1 <1>         0.027149 
     58 H           4.023363   -5.648168    0.456420 H         1 <1>         0.023987 
     59 H           2.298599   -5.765180    0.087267 H         1 <1>         0.023987 
     60 H           2.951186   -6.596714    1.500631 H         1 <1>         0.023987 
     61 H          -0.607802   -0.814693   -3.064492 H         1 <1>         0.023525 
     62 H           0.389508    0.666923   -3.064787 H         1 <1>         0.023525 
     63 H          -0.994919    0.486592   -4.137875 H         1 <1>         0.023525 
     64 H          -1.969733    1.868718    2.138612 H         1 <1>         0.023542 
     65 H          -1.485044    3.097724    1.016236 H         1 <1>         0.023542 
     66 H          -2.593299    1.764063    0.609811 H         1 <1>         0.023542 
     67 H          -0.987039    0.314351    3.324465 H         1 <1>         0.023829 
     68 H          -0.029880    1.857411    3.156437 H         1 <1>         0.023829 
     69 H           0.649156    0.497167    3.897415 H         1 <1>         0.023829 
     70 H           1.238212   -3.070129    4.350943 H         1 <1>         0.023605 
     71 H           1.792997   -1.544959    5.056064 H         1 <1>         0.023605 
     72 H           0.359207   -1.661403    3.983785 H         1 <1>         0.023605 
     73 H          -2.893503    5.295548   -3.539075 H         1 <1>         0.023587 
     74 H          -1.262394    5.249923   -2.854851 H         1 <1>         0.023587 
     75 H          -2.681352    4.928194   -1.825069 H         1 <1>         0.023587 
     76 H          -0.288574    3.292121   -4.416223 H         1 <1>         0.023587 
     77 H          -1.579617    2.320014   -5.164995 H         1 <1>         0.023587 
     78 H          -1.684119    4.046658   -5.193926 H         1 <1>         0.023587 
     79 H          -5.072407    3.061522   -4.722252 H         1 <1>         0.209800 
@<TRIPOS>BOND
     1    1    2 1    
     2    1    6 1    
     3    1   24 1    
     4    1   25 1    
     5    2    3 1    
     6    2   34 1    
     7    2   35 1    
     8    3    4 1    
     9    3   23 1    
    10    3   36 1    
    11    4    5 1    
    12    4    7 1    
    13    4   30 1    
    14    5    6 1    
    15    5   10 1    
    16    5   37 1    
    17    6   38 1    
    18    6   39 1    
    19    7    8 1    
    20    7   40 1    
    21    7   41 1    
    22    8    9 1    
    23    8   42 1    
    24    8   43 1    
    25    9   10 1    
    26    9   11 1    
    27    9   29 1    
    28   10   14 2    
    29   11   12 1    
    30   11   15 1    
    31   11   28 1    
    32   12   13 1    
    33   12   18 1    
    34   12   44 1    
    35   13   14 1    
    36   13   45 1    
    37   13   46 1    
    38   14   47 1    
    39   15   16 1    
    40   15   48 1    
    41   15   49 1    
    42   16   17 1    
    43   16   50 1    
    44   16   51 1    
    45   17   18 1    
    46   17   19 1    
    47   17   52 1    
    48   18   22 1    
    49   18   27 1    
    50   19   20 1    
    51   19   31 1    
    52   19   32 1    
    53   20   21 1    
    54   20   33 1    
    55   20   53 1    
    56   21   22 1    
    57   21   54 1    
    58   21   55 1    
    59   22   56 1    
    60   22   57 1    
    61   23   25 1    
    62   24   58 1    
    63   24   59 1    
    64   24   60 1    
    65   25   26 2    
    66   27   61 1    
    67   27   62 1    
    68   27   63 1    
    69   28   64 1    
    70   28   65 1    
    71   28   66 1    
    72   29   67 1    
    73   29   68 1    
    74   29   69 1    
    75   30   70 1    
    76   30   71 1    
    77   30   72 1    
    78   31   73 1    
    79   31   74 1    
    80   31   75 1    
    81   32   76 1    
    82   32   77 1    
    83   32   78 1    
    84   33   79 1    
@<TRIPOS>SUBSTRUCTURE
     1 ****        1 TEMP              0 ****  ****    0 ROOT 
@<TRIPOS>NORMAL
@<TRIPOS>FF_PBC
FORCE_FIELD_SETUP_FEATURE Force Field Setup information
v1.0  0 0.000000 0.000000 0.000000 0.000000 0.000000 0.000000 NONE 0 0 0 0 1 0 0 0 0 0 0 0 0
