@<TRIPOS>MOLECULE
MOL000974
   23    23     1     1     0
SMALL
GASTEIGER


@<TRIPOS>ATOM
      1 C           3.385968   -2.278754    0.003074 C.2       1 <1>         0.150199 
      2 C           2.091369   -1.495642    0.001344 C.ar      1 <1>         0.014197 
      3 C           0.792708   -2.211118   -0.014259 C.ar      1 <1>        -0.051274 
      4 C          -0.414479   -1.493274   -0.015120 C.ar      1 <1>        -0.057672 
      5 C          -0.412366   -0.008095   -0.000705 C.ar      1 <1>        -0.044754 
      6 C           0.827543    0.668908    0.012991 C.ar      1 <1>        -0.057672 
      7 C           2.100857   -0.089647    0.014453 C.ar      1 <1>        -0.051274 
      8 O           4.463759   -1.706421    0.016077 O.2       1 <1>        -0.295700 
      9 C          -1.742084    0.767567   -0.001150 C.3       1 <1>        -0.021514 
     10 C          -1.877660    1.628539    1.282930 C.3       1 <1>        -0.058650 
     11 C          -1.871775    1.630905   -1.284031 C.3       1 <1>        -0.058650 
     12 H           3.373547   -3.367694   -0.007249 H         1 <1>         0.108138 
     13 H           0.772980   -3.296056   -0.025134 H         1 <1>         0.062449 
     14 H          -1.353759   -2.036457   -0.026683 H         1 <1>         0.062056 
     15 H           0.866165    1.752007    0.022614 H         1 <1>         0.062056 
     16 H           3.042427    0.449640    0.025869 H         1 <1>         0.062449 
     17 H          -2.576139    0.044645   -0.003088 H         1 <1>         0.034345 
     18 H          -1.767281    0.991022    2.174171 H         1 <1>         0.023545 
     19 H          -2.868037    2.108975    1.316975 H         1 <1>         0.023545 
     20 H          -1.110939    2.416326    1.318618 H         1 <1>         0.023545 
     21 H          -1.763406    0.994100   -2.176047 H         1 <1>         0.023545 
     22 H          -2.859509    2.116682   -1.318794 H         1 <1>         0.023545 
     23 H          -1.100090    2.414040   -1.316855 H         1 <1>         0.023545 
@<TRIPOS>BOND
     1    1    2 1    
     2    1    8 2    
     3    1   12 1    
     4    2    3 1    
     5    2    7 2    
     6    3    4 2    
     7    3   13 1    
     8    4    5 1    
     9    4   14 1    
    10    5    6 2    
    11    5    9 1    
    12    6    7 1    
    13    6   15 1    
    14    7   16 1    
    15    9   10 1    
    16    9   11 1    
    17    9   17 1    
    18   10   18 1    
    19   10   19 1    
    20   10   20 1    
    21   11   21 1    
    22   11   22 1    
    23   11   23 1    
@<TRIPOS>SUBSTRUCTURE
     1 ****        1 TEMP              0 ****  ****    0 ROOT 
@<TRIPOS>NORMAL
@<TRIPOS>FF_PBC
FORCE_FIELD_SETUP_FEATURE Force Field Setup information
v1.0  0 0.000000 0.000000 0.000000 0.000000 0.000000 0.000000 NONE 0 0 0 0 1 0 0 0 0 0 0 0 0
