@<TRIPOS>MOLECULE
MOL005004
   48    50     1     1     0
SMALL
GASTEIGER


@<TRIPOS>ATOM
      1 O          -2.097282   -1.448474    0.339703 O.2       1 <1>        -0.203566 
      2 O           0.658428    2.216754   -0.937903 O.3       1 <1>        -0.346646 
      3 O           2.814149   -2.127377   -0.000715 O.3       1 <1>        -0.347242 
      4 O          -4.172286    2.020251    1.063266 O.3       1 <1>        -0.358852 
      5 O          -8.554311   -0.229415    0.540243 O.3       1 <1>        -0.359749 
      6 C          -0.642144    0.283842   -0.285822 C.ar      1 <1>         0.118015 
      7 C           1.804040    0.025631   -0.472467 C.ar      1 <1>         0.017400 
      8 C           0.589249    0.875148   -0.575501 C.ar      1 <1>         0.098129 
      9 C          -0.782235   -1.118096    0.108354 C.ar      1 <1>         0.368770 
     10 C           1.674957   -1.334076   -0.097628 C.ar      1 <1>         0.090657 
     11 C           3.189622    0.610260   -0.765760 C.3       1 <1>        -0.004319 
     12 C          -2.014259    0.796577   -0.284997 C.ar      1 <1>         0.061817 
     13 C          -2.799165   -0.279053    0.091678 C.ar      1 <1>         0.366923 
     14 C           0.345851   -1.928647    0.204946 C.ar      1 <1>         0.073460 
     15 C          -4.276817   -0.240669    0.221060 C.ar      1 <1>         0.108633 
     16 C           3.780539    1.048686    0.551159 C.2       1 <1>        -0.080815 
     17 C           4.910237    0.576229    1.100838 C.2       1 <1>        -0.079306 
     18 C          -4.929668    0.908127    0.697051 C.ar      1 <1>         0.091121 
     19 C          -5.066348   -1.437267   -0.153535 C.ar      1 <1>        -0.040676 
     20 C          -6.412230    0.923110    0.807937 C.ar      1 <1>        -0.001282 
     21 C           0.484159    2.475219   -2.341098 C.3       1 <1>         0.043069 
     22 C          -6.459874   -1.422605   -0.039334 C.ar      1 <1>        -0.030926 
     23 C           5.771216   -0.481115    0.443491 C.3       1 <1>        -0.044040 
     24 C           5.394602    1.080605    2.441884 C.3       1 <1>        -0.044040 
     25 C          -7.159804   -0.212504    0.448421 C.ar      1 <1>         0.075062 
     26 C           2.998107   -3.090017   -1.051454 C.3       1 <1>         0.043044 
     27 H           3.786776   -0.140027   -1.300183 H         1 <1>         0.035722 
     28 H           3.120949    1.494154   -1.414606 H         1 <1>         0.035722 
     29 H          -2.325284    1.804116   -0.536683 H         1 <1>         0.072138 
     30 H           0.255264   -2.968770    0.497134 H         1 <1>         0.073795 
     31 H           3.207216    1.816179    1.073615 H         1 <1>         0.057473 
     32 H          -4.565009   -2.328894   -0.516048 H         1 <1>         0.062801 
     33 H          -6.917586    1.812962    1.166280 H         1 <1>         0.066924 
     34 H          -0.473886    2.076619   -2.706086 H         1 <1>         0.052870 
     35 H           1.302462    2.038127   -2.932250 H         1 <1>         0.052870 
     36 H           0.490355    3.566254   -2.485870 H         1 <1>         0.052870 
     37 H          -7.040410   -2.298748   -0.308818 H         1 <1>         0.064344 
     38 H           6.048781   -0.182271   -0.578528 H         1 <1>         0.027427 
     39 H           6.704118   -0.650371    1.002800 H         1 <1>         0.027427 
     40 H           5.225103   -1.433191    0.408883 H         1 <1>         0.027427 
     41 H           4.730582    1.839149    2.882299 H         1 <1>         0.027427 
     42 H           5.458807    0.234343    3.141366 H         1 <1>         0.027427 
     43 H           6.393464    1.526544    2.327947 H         1 <1>         0.027427 
     44 H           2.978910   -2.605878   -2.040147 H         1 <1>         0.052870 
     45 H           2.224128   -3.871055   -1.013691 H         1 <1>         0.052870 
     46 H           3.981330   -3.563437   -0.914333 H         1 <1>         0.052870 
     47 H          -4.684776    2.740289    1.416547 H         1 <1>         0.217344 
     48 H          -8.951725    0.601385    0.774858 H         1 <1>         0.217315 
@<TRIPOS>BOND
     1    1    9 1    
     2   13    1 1    
     3    8    2 1    
     4    2   21 1    
     5   10    3 1    
     6    3   26 1    
     7   18    4 1    
     8    4   47 1    
     9   25    5 1    
    10    5   48 1    
    11    6    8 2    
    12    6    9 1    
    13   12    6 1    
    14    8    7 1    
    15    7   10 2    
    16    7   11 1    
    17    9   14 2    
    18   14   10 1    
    19   11   16 1    
    20   11   27 1    
    21   11   28 1    
    22   13   12 2    
    23   12   29 1    
    24   15   13 1    
    25   14   30 1    
    26   18   15 2    
    27   15   19 1    
    28   16   17 2    
    29   16   31 1    
    30   17   23 1    
    31   17   24 1    
    32   20   18 1    
    33   19   22 2    
    34   19   32 1    
    35   20   25 2    
    36   20   33 1    
    37   21   34 1    
    38   21   35 1    
    39   21   36 1    
    40   22   25 1    
    41   22   37 1    
    42   23   38 1    
    43   23   39 1    
    44   23   40 1    
    45   24   41 1    
    46   24   42 1    
    47   24   43 1    
    48   26   44 1    
    49   26   45 1    
    50   26   46 1    
@<TRIPOS>SUBSTRUCTURE
     1 ****        2 TEMP              0 ****  ****    0 ROOT 
@<TRIPOS>NORMAL
@<TRIPOS>FF_PBC
FORCE_FIELD_SETUP_FEATURE Force Field Setup information
v1.0  0 0.000000 0.000000 0.000000 0.000000 0.000000 0.000000 NONE 0 0 0 0 1 0 0 0 0 0 0 0 0
