@<TRIPOS>MOLECULE
MOL002104
   42    43     1     1     0
SMALL
GASTEIGER


@<TRIPOS>ATOM
      1 C           3.090368   -1.442778   -0.727931 C.2       1 <1>         0.297602 
      2 O           3.828025   -0.336724   -0.816810 O.3       1 <1>        -0.274144 
      3 C           2.878986    0.605106   -0.704684 C.2       1 <1>         0.086237 
      4 C           1.501958    0.082782   -0.546962 C.2       1 <1>        -0.005712 
      5 C           0.164843    0.757336   -0.394507 C.3       1 <1>        -0.023974 
      6 C          -0.993511   -0.268874   -0.551913 C.3       1 <1>        -0.036716 
      7 C          -0.676977   -1.589625    0.208570 C.3       1 <1>         0.048049 
      8 C           0.562525   -2.261999   -0.449092 C.3       1 <1>         0.095574 
      9 C           1.654638   -1.237497   -0.565866 C.2       1 <1>         0.058892 
     10 O           3.584544   -2.556196   -0.780416 O.2       1 <1>        -0.259074 
     11 C          -1.852488   -2.546453    0.256804 C.2       1 <1>         0.139193 
     12 C          -3.058412   -2.166817    1.087155 C.3       1 <1>         0.005953 
     13 C          -4.102463   -3.314908    1.158160 C.3       1 <1>        -0.049217 
     14 C          -5.313159   -2.923358    2.045068 C.3       1 <1>        -0.064892 
     15 O          -1.828529   -3.612189   -0.337359 O.2       1 <1>        -0.297015 
     16 O           0.236777   -2.702813   -1.779057 O.3       1 <1>        -0.386278 
     17 C           3.255367    1.891304   -0.746155 C.2       1 <1>        -0.053069 
     18 C           2.359073    3.100729   -0.622867 C.3       1 <1>        -0.032278 
     19 C           3.177790    4.395363   -0.367382 C.3       1 <1>        -0.052380 
     20 C           2.252146    5.630368   -0.210908 C.3       1 <1>        -0.064997 
     21 H           0.035497    1.560128   -1.135570 H         1 <1>         0.031430 
     22 H           0.121031    1.186679    0.618476 H         1 <1>         0.031430 
     23 H          -1.916741    0.202117   -0.178946 H         1 <1>         0.027600 
     24 H          -1.143933   -0.507157   -1.617972 H         1 <1>         0.027600 
     25 H          -0.416248   -1.335052    1.249314 H         1 <1>         0.040608 
     26 H           0.895918   -3.112781    0.170929 H         1 <1>         0.065241 
     27 H          -3.548891   -1.283577    0.652071 H         1 <1>         0.034155 
     28 H          -2.725350   -1.917151    2.106945 H         1 <1>         0.034155 
     29 H          -3.627260   -4.219253    1.574378 H         1 <1>         0.026663 
     30 H          -4.459445   -3.545387    0.139336 H         1 <1>         0.026663 
     31 H          -6.046429   -3.745347    2.067412 H         1 <1>         0.022988 
     32 H          -5.806070   -2.023212    1.645384 H         1 <1>         0.022988 
     33 H          -4.981764   -2.719819    3.075497 H         1 <1>         0.022988 
     34 H           0.959628   -3.142183   -2.218270 H         1 <1>         0.210261 
     35 H           4.322805    2.067939   -0.887784 H         1 <1>         0.059779 
     36 H           1.786456    3.216765   -1.556842 H         1 <1>         0.030812 
     37 H           1.667048    2.969674    0.220867 H         1 <1>         0.030812 
     38 H           3.775881    4.274142    0.551859 H         1 <1>         0.026559 
     39 H           3.868383    4.569815   -1.209781 H         1 <1>         0.026559 
     40 H           2.854700    6.536399   -0.036220 H         1 <1>         0.022987 
     41 H           1.652563    5.778839   -1.122752 H         1 <1>         0.022987 
     42 H           1.568759    5.495190    0.642287 H         1 <1>         0.022987 
@<TRIPOS>BOND
     1    1    2 1    
     2    1    9 1    
     3    1   10 2    
     4    2    3 1    
     5    3    4 1    
     6    3   17 2    
     7    4    5 1    
     8    4    9 2    
     9    5    6 1    
    10    5   21 1    
    11    5   22 1    
    12    6    7 1    
    13    6   23 1    
    14    6   24 1    
    15    7    8 1    
    16    7   11 1    
    17    7   25 1    
    18    8    9 1    
    19    8   16 1    
    20    8   26 1    
    21   11   12 1    
    22   11   15 2    
    23   12   13 1    
    24   12   27 1    
    25   12   28 1    
    26   13   14 1    
    27   13   29 1    
    28   13   30 1    
    29   14   31 1    
    30   14   32 1    
    31   14   33 1    
    32   16   34 1    
    33   17   18 1    
    34   17   35 1    
    35   18   19 1    
    36   18   36 1    
    37   18   37 1    
    38   19   20 1    
    39   19   38 1    
    40   19   39 1    
    41   20   40 1    
    42   20   41 1    
    43   20   42 1    
@<TRIPOS>SUBSTRUCTURE
     1 ****        1 TEMP              0 ****  ****    0 ROOT 
@<TRIPOS>NORMAL
@<TRIPOS>FF_PBC
FORCE_FIELD_SETUP_FEATURE Force Field Setup information
v1.0  0 0.000000 0.000000 0.000000 0.000000 0.000000 0.000000 NONE 0 0 0 0 1 0 0 0 0 0 0 0 0
