@<TRIPOS>MOLECULE
MOL007341
   80    84     1     1     0
SMALL
GASTEIGER


@<TRIPOS>ATOM
      1 O          -6.688274   -1.036142    0.462055 O.3       1 <1>        -0.388697 
      2 O          -4.916747   -3.168703    0.186767 O.3       1 <1>        -0.389202 
      3 O           3.317969    1.025767   -1.992525 O.3       1 <1>        -0.330836 
      4 O           5.356004    1.862639   -1.676606 O.2       1 <1>        -0.264536 
      5 C          -0.200040    1.132250   -0.071156 C.3       1 <1>        -0.019371 
      6 C          -0.936469   -0.254683   -0.223842 C.3       1 <1>        -0.025655 
      7 C          -2.485848   -0.294020   -0.619906 C.3       1 <1>        -0.022627 
      8 C           1.207936    0.961320    0.688202 C.3       1 <1>        -0.005077 
      9 C          -3.246831    0.716969    0.318378 C.3       1 <1>        -0.027669 
     10 C          -1.139200    2.103674    0.717254 C.3       1 <1>        -0.046268 
     11 C           1.991964   -0.241410    0.138732 C.2       1 <1>        -0.062363 
     12 C          -2.604884    2.138000    0.207128 C.3       1 <1>        -0.048607 
     13 C           3.475623   -0.348738    0.490672 C.3       1 <1>         0.001771 
     14 C          -4.827426    0.675227    0.340666 C.3       1 <1>        -0.003164 
     15 C           4.239792    0.977105    0.260612 C.3       1 <1>         0.062985 
     16 C          -0.025389   -1.241680   -1.014123 C.3       1 <1>        -0.030613 
     17 C           2.088747    2.263952    0.571010 C.3       1 <1>        -0.042414 
     18 C          -3.050830   -1.721209   -0.283415 C.3       1 <1>        -0.018438 
     19 C           3.558517    2.118650    1.055820 C.3       1 <1>        -0.036954 
     20 C           0.019060    1.747018   -1.495386 C.3       1 <1>        -0.058491 
     21 C          -5.274748   -0.797905    0.639411 C.3       1 <1>         0.086418 
     22 C           1.421669   -1.195512   -0.609518 C.2       1 <1>        -0.083617 
     23 C          -2.763293   -0.038672   -2.149307 C.3       1 <1>        -0.058928 
     24 C           4.434277   -1.363547   -0.200404 C.3       1 <1>        -0.012882 
     25 C          -4.599003   -1.842995   -0.284429 C.3       1 <1>         0.082079 
     26 C           1.045181    0.702167    2.235583 C.3       1 <1>        -0.055323 
     27 C           5.651951    0.596617    0.775858 C.3       1 <1>        -0.037197 
     28 C           5.849871   -0.834790    0.196925 C.3       1 <1>        -0.044968 
     29 C          -5.505314    1.202458   -0.960335 C.3       1 <1>        -0.057105 
     30 C          -5.370609    1.583410    1.501384 C.3       1 <1>        -0.057105 
     31 C           4.355085    1.337736   -1.211818 C.2       1 <1>         0.266401 
     32 C           4.298118   -2.852854    0.072499 C.2       1 <1>        -0.076019 
     33 C           5.153078   -3.749131   -0.799105 C.3       1 <1>        -0.043758 
     34 C           3.482797   -3.373435    1.002271 C.2       1 <1>        -0.099428 
     35 H          -0.925743   -0.665925    0.789919 H         1 <1>         0.031461 
     36 H          -3.004111    0.376821    1.338621 H         1 <1>         0.031212 
     37 H          -0.732867    3.127663    0.708509 H         1 <1>         0.027096 
     38 H          -1.229160    1.802924    1.768487 H         1 <1>         0.027096 
     39 H          -3.111727    2.861333    0.859993 H         1 <1>         0.026846 
     40 H          -2.654598    2.561850   -0.803073 H         1 <1>         0.026846 
     41 H           3.540738   -0.595233    1.558575 H         1 <1>         0.036179 
     42 H           0.003432   -1.055095   -2.093850 H         1 <1>         0.031042 
     43 H          -0.365857   -2.277202   -0.861979 H         1 <1>         0.031042 
     44 H           1.628585    3.097206    1.123569 H         1 <1>         0.027403 
     45 H           2.199707    2.601901   -0.463382 H         1 <1>         0.027403 
     46 H          -2.737541   -2.042548    0.722893 H         1 <1>         0.029632 
     47 H          -2.674695   -2.466702   -1.001029 H         1 <1>         0.029632 
     48 H           4.117761    3.053107    0.874786 H         1 <1>         0.027587 
     49 H           3.599919    1.928533    2.138421 H         1 <1>         0.027587 
     50 H           0.240669    2.823244   -1.462971 H         1 <1>         0.023542 
     51 H           0.834215    1.236851   -2.024291 H         1 <1>         0.023542 
     52 H          -0.859716    1.678999   -2.132805 H         1 <1>         0.023542 
     53 H          -4.985216   -1.069025    1.669893 H         1 <1>         0.062439 
     54 H           2.014261   -2.027688   -0.984958 H         1 <1>         0.057198 
     55 H           4.300835   -1.242684   -1.287769 H         1 <1>         0.035147 
     56 H          -3.034437    0.997298   -2.378149 H         1 <1>         0.023526 
     57 H          -1.920497   -0.300698   -2.792006 H         1 <1>         0.023526 
     58 H          -3.572572   -0.651642   -2.555391 H         1 <1>         0.023526 
     59 H          -5.025933   -1.760100   -1.294878 H         1 <1>         0.061925 
     60 H           1.971496    0.408552    2.736233 H         1 <1>         0.023829 
     61 H           0.734711    1.609695    2.772472 H         1 <1>         0.023829 
     62 H           0.334723   -0.094652    2.481625 H         1 <1>         0.023829 
     63 H           5.643608    0.556030    1.878741 H         1 <1>         0.027578 
     64 H           6.444843    1.304049    0.479718 H         1 <1>         0.027578 
     65 H           6.512507   -0.807754   -0.684526 H         1 <1>         0.027144 
     66 H           6.321401   -1.475720    0.961539 H         1 <1>         0.027144 
     67 H          -5.104186    2.189825   -1.231957 H         1 <1>         0.023588 
     68 H          -5.390781    0.534566   -1.817963 H         1 <1>         0.023588 
     69 H          -6.589197    1.313760   -0.803255 H         1 <1>         0.023588 
     70 H          -4.839683    1.395309    2.446959 H         1 <1>         0.023588 
     71 H          -5.288997    2.653600    1.265985 H         1 <1>         0.023588 
     72 H          -6.438416    1.421426    1.694614 H         1 <1>         0.023588 
     73 H          -7.255178   -0.596060    1.084291 H         1 <1>         0.209912 
     74 H          -5.858234   -3.310127    0.245033 H         1 <1>         0.209888 
     75 H           4.767594   -3.715739   -1.829565 H         1 <1>         0.027436 
     76 H           6.198767   -3.409113   -0.801385 H         1 <1>         0.027436 
     77 H           5.146804   -4.795796   -0.462589 H         1 <1>         0.027436 
     78 H           3.464628    1.263570   -2.900148 H         1 <1>         0.220226 
     79 H           3.426888   -4.450283    1.152364 H         1 <1>         0.053440 
     80 H           2.839114   -2.779256    1.645430 H         1 <1>         0.053440 
@<TRIPOS>BOND
     1   21    1 1    
     2    1   73 1    
     3   25    2 1    
     4    2   74 1    
     5   31    3 1    
     6    3   78 1    
     7   31    4 2    
     8    6    5 1    
     9    5    8 1    
    10    5   10 1    
    11    5   20 1    
    12    7    6 1    
    13    6   16 1    
    14    6   35 1    
    15    7    9 1    
    16   18    7 1    
    17    7   23 1    
    18    8   11 1    
    19    8   17 1    
    20    8   26 1    
    21    9   12 1    
    22    9   14 1    
    23    9   36 1    
    24   12   10 1    
    25   10   37 1    
    26   10   38 1    
    27   11   13 1    
    28   22   11 2    
    29   12   39 1    
    30   12   40 1    
    31   13   15 1    
    32   13   24 1    
    33   13   41 1    
    34   14   21 1    
    35   14   29 1    
    36   14   30 1    
    37   19   15 1    
    38   15   27 1    
    39   15   31 1    
    40   16   22 1    
    41   16   42 1    
    42   16   43 1    
    43   17   19 1    
    44   17   44 1    
    45   17   45 1    
    46   18   25 1    
    47   18   46 1    
    48   18   47 1    
    49   19   48 1    
    50   19   49 1    
    51   20   50 1    
    52   20   51 1    
    53   20   52 1    
    54   21   25 1    
    55   21   53 1    
    56   22   54 1    
    57   23   56 1    
    58   23   57 1    
    59   23   58 1    
    60   24   28 1    
    61   24   32 1    
    62   24   55 1    
    63   25   59 1    
    64   26   60 1    
    65   26   61 1    
    66   26   62 1    
    67   27   28 1    
    68   27   63 1    
    69   27   64 1    
    70   28   65 1    
    71   28   66 1    
    72   29   67 1    
    73   29   68 1    
    74   29   69 1    
    75   30   70 1    
    76   30   71 1    
    77   30   72 1    
    78   32   33 1    
    79   32   34 2    
    80   33   75 1    
    81   33   76 1    
    82   33   77 1    
    83   34   79 1    
    84   34   80 1    
@<TRIPOS>SUBSTRUCTURE
     1 ****        5 TEMP              0 ****  ****    0 ROOT 
@<TRIPOS>NORMAL
@<TRIPOS>FF_PBC
FORCE_FIELD_SETUP_FEATURE Force Field Setup information
v1.0  0 0.000000 0.000000 0.000000 0.000000 0.000000 0.000000 NONE 0 0 0 0 1 0 0 0 0 0 0 0 0
