@<TRIPOS>MOLECULE
MOL001645
   58    57     1     1     0
SMALL
GASTEIGER


@<TRIPOS>ATOM
      1 C          -3.023958    7.092009   -0.622785 C.3       1 <1>        -0.055902 
      2 C          -1.777709    6.235968   -0.268037 C.3       1 <1>        -0.053028 
      3 C          -2.028628    4.728475   -0.547197 C.3       1 <1>        -0.049624 
      4 C          -0.796917    3.866228   -0.162206 C.3       1 <1>        -0.034751 
      5 C          -1.058449    2.412308   -0.481883 C.2       1 <1>        -0.087640 
      6 C          -0.284430    1.693405   -1.306542 C.2       1 <1>        -0.084202 
      7 C          -0.537977    0.240868   -1.626439 C.3       1 <1>        -0.016545 
      8 C          -1.042939    0.413453    2.552958 C.3       1 <1>         0.021433 
      9 C           0.662263   -0.555942   -1.178618 C.2       1 <1>        -0.084202 
     10 C           1.458911   -1.232120   -2.018741 C.2       1 <1>        -0.087640 
     11 O          -0.222980   -1.791055    2.094934 O.3       1 <1>        -0.315403 
     12 C          -1.267220   -0.958075    1.980810 C.2       1 <1>         0.259041 
     13 C           2.645053   -2.036491   -1.538251 C.3       1 <1>        -0.034751 
     14 C           2.260996   -3.539689   -1.537135 C.3       1 <1>        -0.049616 
     15 C           0.854598   -3.919907    1.689045 C.3       1 <1>        -0.028873 
     16 C          -0.453814   -3.101941    1.539308 C.3       1 <1>         0.057053 
     17 C           3.320822   -4.416036   -0.806675 C.3       1 <1>        -0.052779 
     18 C           2.815557   -5.857203   -0.496621 C.3       1 <1>        -0.053047 
     19 C           2.101680   -6.061220    0.879803 C.3       1 <1>        -0.052986 
     20 C           0.730258   -5.343520    1.066144 C.3       1 <1>        -0.050962 
     21 O          -2.324021   -1.265619    1.451300 O.2       1 <1>        -0.265283 
     22 C          -2.763964    8.599510   -0.367038 C.3       1 <1>        -0.065276 
     23 H          -3.282559    6.946741   -1.684984 H         1 <1>         0.026265 
     24 H          -3.881502    6.765113   -0.011159 H         1 <1>         0.026265 
     25 H          -1.532741    6.374006    0.798014 H         1 <1>         0.026529 
     26 H          -0.918140    6.579502   -0.867208 H         1 <1>         0.026529 
     27 H          -2.246263    4.585612   -1.618836 H         1 <1>         0.026822 
     28 H          -2.903781    4.389269    0.031398 H         1 <1>         0.026822 
     29 H          -0.602282    3.954645    0.918700 H         1 <1>         0.030732 
     30 H           0.089711    4.241866   -0.698132 H         1 <1>         0.030732 
     31 H          -1.922801    1.945113   -0.008765 H         1 <1>         0.056905 
     32 H           0.580605    2.155066   -1.784037 H         1 <1>         0.057203 
     33 H          -0.713185    0.149727   -2.709484 H         1 <1>         0.034961 
     34 H          -1.426680   -0.152296   -1.108053 H         1 <1>         0.034961 
     35 H          -0.258312    0.928432    1.979492 H         1 <1>         0.033023 
     36 H          -0.724173    0.325748    3.601854 H         1 <1>         0.033023 
     37 H          -1.967823    1.007664    2.511478 H         1 <1>         0.033023 
     38 H           0.868229   -0.567775   -0.107345 H         1 <1>         0.057203 
     39 H           1.255226   -1.226549   -3.090017 H         1 <1>         0.056905 
     40 H           3.513718   -1.862045   -2.193044 H         1 <1>         0.030732 
     41 H           2.926630   -1.723585   -0.520070 H         1 <1>         0.030732 
     42 H           1.280031   -3.632206   -1.058899 H         1 <1>         0.026822 
     43 H           2.140163   -3.889556   -2.576057 H         1 <1>         0.026822 
     44 H           1.660774   -3.337756    1.225423 H         1 <1>         0.028748 
     45 H           1.102771   -4.007035    2.760291 H         1 <1>         0.028748 
     46 H          -1.274845   -3.612779    2.070259 H         1 <1>         0.056579 
     47 H          -0.711761   -3.019103    0.469488 H         1 <1>         0.056579 
     48 H           4.193489   -4.466335   -1.480786 H         1 <1>         0.026538 
     49 H           3.671428   -3.957341    0.130400 H         1 <1>         0.026538 
     50 H           3.702441   -6.515610   -0.480171 H         1 <1>         0.026529 
     51 H           2.168147   -6.207496   -1.317188 H         1 <1>         0.026529 
     52 H           1.917516   -7.147148    0.963703 H         1 <1>         0.026529 
     53 H           2.779195   -5.784061    1.703973 H         1 <1>         0.026529 
     54 H           0.105949   -5.927913    1.764392 H         1 <1>         0.026599 
     55 H           0.196723   -5.336832    0.103719 H         1 <1>         0.026599 
     56 H          -3.661715    9.186840   -0.617343 H         1 <1>         0.022978 
     57 H          -2.515690    8.773096    0.691727 H         1 <1>         0.022978 
     58 H          -1.928126    8.955676   -0.989560 H         1 <1>         0.022978 
@<TRIPOS>BOND
     1    2    1 1    
     2    1   22 1    
     3    1   23 1    
     4    1   24 1    
     5    3    2 1    
     6    2   25 1    
     7    2   26 1    
     8    4    3 1    
     9    3   27 1    
    10    3   28 1    
    11    5    4 1    
    12    4   29 1    
    13    4   30 1    
    14    6    5 2    
    15    5   31 1    
    16    7    6 1    
    17    6   32 1    
    18    9    7 1    
    19    7   33 1    
    20    7   34 1    
    21   12    8 1    
    22    8   35 1    
    23    8   36 1    
    24    8   37 1    
    25   10    9 2    
    26    9   38 1    
    27   13   10 1    
    28   10   39 1    
    29   11   12 1    
    30   16   11 1    
    31   12   21 2    
    32   14   13 1    
    33   13   40 1    
    34   13   41 1    
    35   17   14 1    
    36   14   42 1    
    37   14   43 1    
    38   15   16 1    
    39   20   15 1    
    40   15   44 1    
    41   15   45 1    
    42   16   46 1    
    43   16   47 1    
    44   18   17 1    
    45   17   48 1    
    46   17   49 1    
    47   19   18 1    
    48   18   50 1    
    49   18   51 1    
    50   19   20 1    
    51   19   52 1    
    52   19   53 1    
    53   20   54 1    
    54   20   55 1    
    55   22   56 1    
    56   22   57 1    
    57   22   58 1    
@<TRIPOS>SUBSTRUCTURE
     1 ****        1 TEMP              0 ****  ****    0 ROOT 
@<TRIPOS>NORMAL
@<TRIPOS>FF_PBC
FORCE_FIELD_SETUP_FEATURE Force Field Setup information
v1.0  0 0.000000 0.000000 0.000000 0.000000 0.000000 0.000000 NONE 0 0 0 0 1 0 0 0 0 0 0 0 0
