@<TRIPOS>MOLECULE
MOL002850
   40    40     1     1     0
SMALL
GASTEIGER


@<TRIPOS>ATOM
      1 C          -0.020858    1.247839   -0.410757 C.ar      1 <1>        -0.011753 
      2 C           0.530543   -0.078351    0.002113 C.ar      1 <1>         0.079930 
      3 C           0.914860    2.471524   -0.667505 C.3       1 <1>        -0.010228 
      4 C          -1.431832    1.354790   -0.550987 C.ar      1 <1>        -0.052687 
      5 C          -0.330757   -1.207298    0.315516 C.ar      1 <1>        -0.011753 
      6 O           1.907529   -0.223297    0.089331 O.3       1 <1>        -0.359253 
      7 C           0.143208    3.761014   -1.096747 C.3       1 <1>        -0.055962 
      8 C           1.934348    2.164248   -1.805970 C.3       1 <1>        -0.055962 
      9 C           1.669804    2.817739    0.650486 C.3       1 <1>        -0.055962 
     10 C          -2.326528    0.210654   -0.281038 C.ar      1 <1>        -0.049740 
     11 C           0.217513   -2.582725    0.819464 C.3       1 <1>        -0.010228 
     12 C          -1.795437   -1.009248    0.135028 C.ar      1 <1>        -0.052687 
     13 C          -3.836147    0.407566   -0.470199 C.3       1 <1>        -0.039689 
     14 C          -0.900593   -3.476245    1.451752 C.3       1 <1>        -0.055962 
     15 C           0.815308   -3.388018   -0.370557 C.3       1 <1>        -0.055962 
     16 C           1.293494   -2.391983    1.936140 C.3       1 <1>        -0.055962 
     17 H          -1.914314    2.272879   -0.853871 H         1 <1>         0.062388 
     18 H           2.240565   -0.666393   -0.681798 H         1 <1>         0.217337 
     19 H          -0.388212    3.599580   -2.047768 H         1 <1>         0.023805 
     20 H          -0.572695    4.077576   -0.322936 H         1 <1>         0.023805 
     21 H           0.833208    4.605211   -1.250371 H         1 <1>         0.023805 
     22 H           1.406514    1.738256   -2.673014 H         1 <1>         0.023805 
     23 H           2.453227    3.078221   -2.133930 H         1 <1>         0.023805 
     24 H           2.718437    1.465256   -1.492932 H         1 <1>         0.023805 
     25 H           2.301682    1.989203    0.997524 H         1 <1>         0.023805 
     26 H           0.945649    3.049215    1.446643 H         1 <1>         0.023805 
     27 H           2.321738    3.693291    0.507718 H         1 <1>         0.023805 
     28 H          -2.498485   -1.808065    0.316084 H         1 <1>         0.062388 
     29 H          -4.412970   -0.500459   -0.240598 H         1 <1>         0.027754 
     30 H          -4.030832    0.693487   -1.514513 H         1 <1>         0.027754 
     31 H          -4.177311    1.217124    0.192761 H         1 <1>         0.027754 
     32 H          -1.613984   -3.839326    0.696384 H         1 <1>         0.023805 
     33 H          -1.442860   -2.919168    2.231905 H         1 <1>         0.023805 
     34 H          -0.481050   -4.379974    1.920512 H         1 <1>         0.023805 
     35 H           1.691864   -2.896119   -0.808396 H         1 <1>         0.023805 
     36 H           1.130596   -4.389793   -0.039333 H         1 <1>         0.023805 
     37 H           0.058809   -3.505156   -1.161902 H         1 <1>         0.023805 
     38 H           0.896783   -1.729325    2.720458 H         1 <1>         0.023805 
     39 H           1.561887   -3.352766    2.401628 H         1 <1>         0.023805 
     40 H           2.236155   -1.971403    1.567570 H         1 <1>         0.023805 
@<TRIPOS>BOND
     1    1    2 1    
     2    1    3 1    
     3    1    4 2    
     4    2    5 2    
     5    2    6 1    
     6    3    7 1    
     7    3    8 1    
     8    3    9 1    
     9    4   10 1    
    10    4   17 1    
    11    5   11 1    
    12    5   12 1    
    13    6   18 1    
    14    7   19 1    
    15    7   20 1    
    16    7   21 1    
    17    8   22 1    
    18    8   23 1    
    19    8   24 1    
    20    9   25 1    
    21    9   26 1    
    22    9   27 1    
    23   10   12 2    
    24   10   13 1    
    25   11   14 1    
    26   11   15 1    
    27   11   16 1    
    28   12   28 1    
    29   13   29 1    
    30   13   30 1    
    31   13   31 1    
    32   14   32 1    
    33   14   33 1    
    34   14   34 1    
    35   15   35 1    
    36   15   36 1    
    37   15   37 1    
    38   16   38 1    
    39   16   39 1    
    40   16   40 1    
@<TRIPOS>SUBSTRUCTURE
     1 ****        1 TEMP              0 ****  ****    0 ROOT 
@<TRIPOS>NORMAL
@<TRIPOS>FF_PBC
FORCE_FIELD_SETUP_FEATURE Force Field Setup information
v1.0  0 0.000000 0.000000 0.000000 0.000000 0.000000 0.000000 NONE 0 0 0 0 1 0 0 0 0 0 0 0 0
