@<TRIPOS>MOLECULE
MOL002092
   37    37     1     1     0
SMALL
GASTEIGER


@<TRIPOS>ATOM
      1 C          -0.342101    1.230697   -0.252314 C.ar      1 <1>        -0.012013 
      2 C           0.184166   -0.130679    0.045435 C.ar      1 <1>        -0.051933 
      3 C          -1.772695    1.401624   -0.225233 C.ar      1 <1>         0.076265 
      4 C           0.682830    2.360228   -0.569012 C.3       1 <1>        -0.010237 
      5 C          -0.649039   -1.247000    0.349107 C.ar      1 <1>        -0.041545 
      6 C          -2.644743    0.242463    0.090163 C.ar      1 <1>        -0.031379 
      7 O          -2.353699    2.642222   -0.491997 O.3       1 <1>        -0.359543 
      8 C           1.623279    2.553937    0.658807 C.3       1 <1>        -0.055962 
      9 C           0.042862    3.748791   -0.877196 C.3       1 <1>        -0.055962 
     10 C           1.516977    1.955371   -1.822518 C.3       1 <1>        -0.055962 
     11 C          -2.116752   -1.018914    0.362348 C.ar      1 <1>        -0.055619 
     12 C          -0.011259   -2.631258    0.649356 C.3       1 <1>        -0.012661 
     13 C           0.800166   -3.106259   -0.592744 C.3       1 <1>        -0.056043 
     14 C          -1.071599   -3.729402    0.967742 C.3       1 <1>        -0.056043 
     15 C           0.926281   -2.510859    1.887599 C.3       1 <1>        -0.056043 
     16 H           1.251761   -0.283852    0.031460 H         1 <1>         0.062414 
     17 H          -3.721684    0.373791    0.110757 H         1 <1>         0.064338 
     18 H          -3.303423    2.638246   -0.503784 H         1 <1>         0.217325 
     19 H           1.025556    2.808217    1.547864 H         1 <1>         0.023805 
     20 H           2.338756    3.370919    0.477788 H         1 <1>         0.023805 
     21 H           2.209513    1.653437    0.887669 H         1 <1>         0.023805 
     22 H          -0.529711    4.120460   -0.013943 H         1 <1>         0.023805 
     23 H           0.818731    4.499260   -1.093634 H         1 <1>         0.023805 
     24 H          -0.608648    3.694705   -1.762739 H         1 <1>         0.023805 
     25 H           2.112987    1.047233   -1.658891 H         1 <1>         0.023805 
     26 H           2.218014    2.756634   -2.102771 H         1 <1>         0.023805 
     27 H           0.841846    1.772932   -2.672707 H         1 <1>         0.023805 
     28 H          -2.814104   -1.817168    0.581514 H         1 <1>         0.062125 
     29 H           1.635948   -2.432232   -0.826833 H         1 <1>         0.023804 
     30 H           1.222740   -4.108389   -0.421468 H         1 <1>         0.023804 
     31 H           0.141064   -3.152741   -1.473215 H         1 <1>         0.023804 
     32 H          -1.662299   -3.459497    1.856628 H         1 <1>         0.023804 
     33 H          -1.747941   -3.883126    0.112978 H         1 <1>         0.023804 
     34 H          -0.583874   -4.693910    1.178027 H         1 <1>         0.023804 
     35 H           0.357163   -2.132595    2.750743 H         1 <1>         0.023804 
     36 H           1.769415   -1.829250    1.708613 H         1 <1>         0.023804 
     37 H           1.348620   -3.492335    2.152563 H         1 <1>         0.023804 
@<TRIPOS>BOND
     1    1    2 1    
     2    1    3 2    
     3    1    4 1    
     4    2    5 2    
     5    2   16 1    
     6    3    6 1    
     7    3    7 1    
     8    4    8 1    
     9    4    9 1    
    10    4   10 1    
    11    5   11 1    
    12    5   12 1    
    13    6   11 2    
    14    6   17 1    
    15    7   18 1    
    16    8   19 1    
    17    8   20 1    
    18    8   21 1    
    19    9   22 1    
    20    9   23 1    
    21    9   24 1    
    22   10   25 1    
    23   10   26 1    
    24   10   27 1    
    25   11   28 1    
    26   12   13 1    
    27   12   14 1    
    28   12   15 1    
    29   13   29 1    
    30   13   30 1    
    31   13   31 1    
    32   14   32 1    
    33   14   33 1    
    34   14   34 1    
    35   15   35 1    
    36   15   36 1    
    37   15   37 1    
@<TRIPOS>SUBSTRUCTURE
     1 ****        1 TEMP              0 ****  ****    0 ROOT 
@<TRIPOS>NORMAL
@<TRIPOS>FF_PBC
FORCE_FIELD_SETUP_FEATURE Force Field Setup information
v1.0  0 0.000000 0.000000 0.000000 0.000000 0.000000 0.000000 NONE 0 0 0 0 1 0 0 0 0 0 0 0 0
