@<TRIPOS>MOLECULE
MOL002118
   39    40     1     1     0
SMALL
GASTEIGER


@<TRIPOS>ATOM
      1 C          -1.253673    1.457201    2.032755 C.3       1 <1>        -0.046792 
      2 C          -2.687991    0.879439    2.182410 C.3       1 <1>        -0.048852 
      3 C          -2.685189   -0.655900    1.969752 C.3       1 <1>        -0.031697 
      4 C          -1.994739   -0.985177    0.663611 C.2       1 <1>        -0.072990 
      5 C          -0.567531   -0.480396    0.557046 C.3       1 <1>        -0.014216 
      6 C          -0.569697    1.075138    0.677645 C.3       1 <1>        -0.025519 
      7 C           0.257173   -0.968971   -0.668449 C.3       1 <1>        -0.039498 
      8 C           1.723024   -0.462846   -0.575995 C.3       1 <1>        -0.019838 
      9 C           1.771449    1.085236   -0.478912 C.3       1 <1>        -0.046000 
     10 C           0.906820    1.587623    0.711201 C.3       1 <1>        -0.046540 
     11 C          -2.627650   -1.667650   -0.302088 C.2       1 <1>        -0.099166 
     12 C           2.565547   -0.971946   -1.732709 C.2       1 <1>        -0.076591 
     13 C           3.742864   -1.851432   -1.371633 C.3       1 <1>        -0.043777 
     14 C           2.290269   -0.664562   -3.008433 C.2       1 <1>        -0.099446 
     15 C          -1.348097    1.742956   -0.502345 C.3       1 <1>        -0.059017 
     16 H          -1.291600    2.553354    2.142729 H         1 <1>         0.027079 
     17 H          -0.657311    1.064680    2.872833 H         1 <1>         0.027079 
     18 H          -3.071986    1.105877    3.191886 H         1 <1>         0.026847 
     19 H          -3.373974    1.353277    1.463756 H         1 <1>         0.026847 
     20 H          -2.132088   -1.141577    2.789579 H         1 <1>         0.030999 
     21 H          -3.722752   -1.025763    2.006890 H         1 <1>         0.030999 
     22 H          -0.049416   -0.892977    1.439116 H         1 <1>         0.035098 
     23 H           0.271644   -2.071676   -0.684136 H         1 <1>         0.027684 
     24 H          -0.200760   -0.624446   -1.605121 H         1 <1>         0.027684 
     25 H           2.144557   -0.856243    0.365271 H         1 <1>         0.034560 
     26 H           1.439345    1.545940   -1.419210 H         1 <1>         0.027114 
     27 H           2.818012    1.398612   -0.324250 H         1 <1>         0.027114 
     28 H           0.918002    2.689669    0.729605 H         1 <1>         0.027087 
     29 H           1.394845    1.237176    1.635468 H         1 <1>         0.027087 
     30 H          -2.172342   -1.923404   -1.255827 H         1 <1>         0.053449 
     31 H          -3.655148   -2.004382   -0.170112 H         1 <1>         0.053449 
     32 H           4.426139   -1.296148   -0.711337 H         1 <1>         0.027436 
     33 H           3.382760   -2.745996   -0.841324 H         1 <1>         0.027436 
     34 H           4.312762   -2.182307   -2.253005 H         1 <1>         0.027436 
     35 H           2.903454   -1.037153   -3.828188 H         1 <1>         0.053440 
     36 H           1.448351   -0.032993   -3.286155 H         1 <1>         0.053440 
     37 H          -2.354487    1.319549   -0.621089 H         1 <1>         0.023525 
     38 H          -1.451267    2.823284   -0.320391 H         1 <1>         0.023525 
     39 H          -0.849219    1.625033   -1.471045 H         1 <1>         0.023525 
@<TRIPOS>BOND
     1    1    2 1    
     2    1    6 1    
     3    1   16 1    
     4    1   17 1    
     5    2    3 1    
     6    2   18 1    
     7    2   19 1    
     8    3    4 1    
     9    3   20 1    
    10    3   21 1    
    11    4    5 1    
    12    4   11 2    
    13    5    6 1    
    14    5    7 1    
    15    5   22 1    
    16    6   10 1    
    17    6   15 1    
    18    7    8 1    
    19    7   23 1    
    20    7   24 1    
    21    8    9 1    
    22    8   12 1    
    23    8   25 1    
    24    9   10 1    
    25    9   26 1    
    26    9   27 1    
    27   10   28 1    
    28   10   29 1    
    29   11   30 1    
    30   11   31 1    
    31   12   13 1    
    32   12   14 2    
    33   13   32 1    
    34   13   33 1    
    35   13   34 1    
    36   14   35 1    
    37   14   36 1    
    38   15   37 1    
    39   15   38 1    
    40   15   39 1    
@<TRIPOS>SUBSTRUCTURE
     1 ****        1 TEMP              0 ****  ****    0 ROOT 
@<TRIPOS>NORMAL
@<TRIPOS>FF_PBC
FORCE_FIELD_SETUP_FEATURE Force Field Setup information
v1.0  0 0.000000 0.000000 0.000000 0.000000 0.000000 0.000000 NONE 0 0 0 0 1 0 0 0 0 0 0 0 0
