@<TRIPOS>MOLECULE
MOL000253
   22    22     1     1     0
SMALL
GASTEIGER


@<TRIPOS>ATOM
      1 C           0.594839    1.312403   -0.429678 C.ar      1 <1>        -0.047502 
      2 C           1.193144   -0.034960   -0.240663 C.ar      1 <1>        -0.046981 
      3 C           0.361464   -1.123166    0.144954 C.ar      1 <1>        -0.051441 
      4 C          -1.096607   -0.945442    0.356816 C.ar      1 <1>        -0.025314 
      5 C          -1.658152    0.344022    0.159103 C.ar      1 <1>        -0.054345 
      6 C          -0.798261    1.484704   -0.234250 C.ar      1 <1>        -0.058033 
      7 C           2.695724   -0.256134   -0.459285 C.3       1 <1>        -0.039442 
      8 C           1.470386    2.506920   -0.830204 C.3       1 <1>        -0.039460 
      9 C          -1.910342   -2.157014    0.768165 C.2       1 <1>        -0.061689 
     10 C          -3.152377   -2.115155    1.268377 C.2       1 <1>        -0.098136 
     11 H           0.797663   -2.105584    0.288762 H         1 <1>         0.062614 
     12 H          -2.718320    0.521577    0.285771 H         1 <1>         0.062352 
     13 H          -1.252696    2.460307   -0.371299 H         1 <1>         0.062046 
     14 H           2.948726   -1.326084   -0.501238 H         1 <1>         0.027762 
     15 H           3.011214    0.204962   -1.406520 H         1 <1>         0.027762 
     16 H           3.251984    0.202786    0.371295 H         1 <1>         0.027762 
     17 H           2.369373    2.544386   -0.197838 H         1 <1>         0.027762 
     18 H           1.770383    2.396789   -1.882723 H         1 <1>         0.027762 
     19 H           0.934005    3.460849   -0.716701 H         1 <1>         0.027762 
     20 H          -1.444038   -3.136630    0.652174 H         1 <1>         0.061765 
     21 H          -3.661034   -3.043131    1.532150 H         1 <1>         0.053499 
     22 H          -3.707076   -1.196506    1.442830 H         1 <1>         0.053499 
@<TRIPOS>BOND
     1    1    2 1    
     2    1    6 2    
     3    1    8 1    
     4    2    3 2    
     5    2    7 1    
     6    3    4 1    
     7    3   11 1    
     8    4    5 2    
     9    4    9 1    
    10    5    6 1    
    11    5   12 1    
    12    6   13 1    
    13    7   14 1    
    14    7   15 1    
    15    7   16 1    
    16    8   17 1    
    17    8   18 1    
    18    8   19 1    
    19    9   10 2    
    20    9   20 1    
    21   10   21 1    
    22   10   22 1    
@<TRIPOS>SUBSTRUCTURE
     1 ****        1 TEMP              0 ****  ****    0 ROOT 
@<TRIPOS>NORMAL
@<TRIPOS>FF_PBC
FORCE_FIELD_SETUP_FEATURE Force Field Setup information
v1.0  0 0.000000 0.000000 0.000000 0.000000 0.000000 0.000000 NONE 0 0 0 0 1 0 0 0 0 0 0 0 0
