@<TRIPOS>MOLECULE
MOL001055
   26    27     1     1     0
SMALL
GASTEIGER


@<TRIPOS>ATOM
      1 C           0.969252   -0.946960    1.523425 C.2       1 <1>        -0.072870 
      2 C           0.188082   -1.873941    0.968130 C.2       1 <1>        -0.084194 
      3 C          -0.371252   -1.433574   -0.352605 C.3       1 <1>        -0.028037 
      4 C           0.170616    0.015523   -0.473641 C.3       1 <1>        -0.016432 
      5 C           1.126745    0.302420    0.709873 C.3       1 <1>        -0.013443 
      6 C           1.686922   -1.044448    2.842715 C.3       1 <1>        -0.043506 
      7 C           1.687194    0.157327   -0.723254 C.3       1 <1>        -0.039254 
      8 C          -0.728648    1.176536   -0.988544 C.3       1 <1>        -0.040217 
      9 C          -1.940899    1.424403   -0.049540 C.3       1 <1>        -0.062134 
     10 C          -1.195291    0.868233   -2.434994 C.3       1 <1>        -0.062134 
     11 H          -0.026264   -2.843788    1.416763 H         1 <1>         0.057181 
     12 H          -1.468361   -1.476287   -0.317967 H         1 <1>         0.031302 
     13 H          -0.005777   -2.061097   -1.179594 H         1 <1>         0.031302 
     14 H           0.940015    1.293640    1.150332 H         1 <1>         0.035123 
     15 H           1.494186   -2.011787    3.330661 H         1 <1>         0.027445 
     16 H           1.344171   -0.237733    3.507627 H         1 <1>         0.027445 
     17 H           2.769767   -0.939071    2.679034 H         1 <1>         0.027445 
     18 H           2.089347    1.092239   -1.141797 H         1 <1>         0.027683 
     19 H           2.288527   -0.750562   -0.883268 H         1 <1>         0.027683 
     20 H          -0.139217    2.109874   -1.014929 H         1 <1>         0.030108 
     21 H          -2.497535    2.314970   -0.380962 H         1 <1>         0.023251 
     22 H          -1.597507    1.595187    0.982209 H         1 <1>         0.023251 
     23 H          -2.634933    0.572033   -0.048815 H         1 <1>         0.023251 
     24 H          -1.787223    1.706410   -2.834548 H         1 <1>         0.023251 
     25 H          -0.321424    0.713945   -3.087176 H         1 <1>         0.023251 
     26 H          -1.815168   -0.040668   -2.459494 H         1 <1>         0.023251 
@<TRIPOS>BOND
     1    1    2 2    
     2    1    5 1    
     3    1    6 1    
     4    2    3 1    
     5    2   11 1    
     6    3    4 1    
     7    3   12 1    
     8    3   13 1    
     9    4    5 1    
    10    4    7 1    
    11    4    8 1    
    12    5    7 1    
    13    5   14 1    
    14    6   15 1    
    15    6   16 1    
    16    6   17 1    
    17    7   18 1    
    18    7   19 1    
    19    8    9 1    
    20    8   10 1    
    21    8   20 1    
    22    9   21 1    
    23    9   22 1    
    24    9   23 1    
    25   10   24 1    
    26   10   25 1    
    27   10   26 1    
@<TRIPOS>SUBSTRUCTURE
     1 ****        1 TEMP              0 ****  ****    0 ROOT 
@<TRIPOS>NORMAL
@<TRIPOS>FF_PBC
FORCE_FIELD_SETUP_FEATURE Force Field Setup information
v1.0  0 0.000000 0.000000 0.000000 0.000000 0.000000 0.000000 NONE 0 0 0 0 1 0 0 0 0 0 0 0 0
