@<TRIPOS>MOLECULE
MOL010044
   42    43     1     1     0
SMALL
GASTEIGER


@<TRIPOS>ATOM
      1 O          -1.354223    0.601964    1.672618 O.3       1 <1>        -0.387731 
      2 C          -0.500545    0.147065    0.596971 C.3       1 <1>         0.075034 
      3 C          -0.561351   -1.414247    0.466484 C.3       1 <1>         0.000438 
      4 C           0.996435    0.429952    0.963361 C.3       1 <1>        -0.009247 
      5 C           0.339906   -1.874788    1.657194 C.3       1 <1>        -0.044368 
      6 C           1.272223   -0.681037    2.016708 C.3       1 <1>        -0.046757 
      7 C          -1.100265    0.936828   -0.604559 C.3       1 <1>        -0.019534 
      8 C           0.040498   -1.983520   -0.863886 C.3       1 <1>        -0.026472 
      9 C           1.368675    1.887882    1.413828 C.3       1 <1>        -0.041264 
     10 C          -2.009995   -1.975006    0.613894 C.3       1 <1>        -0.056651 
     11 C          -0.451062    0.703494   -1.995438 C.3       1 <1>        -0.029380 
     12 C          -0.804908   -1.756004   -2.093056 C.2       1 <1>        -0.084418 
     13 C          -1.026562   -0.545617   -2.619841 C.2       1 <1>        -0.076419 
     14 C           1.767051    2.790275    0.203254 C.3       1 <1>        -0.062324 
     15 C           2.569880    1.932938    2.408296 C.3       1 <1>        -0.062324 
     16 C          -1.876558   -0.352950   -3.857565 C.3       1 <1>        -0.043786 
     17 H           1.654898    0.201600    0.115159 H         1 <1>         0.033112 
     18 H          -0.278873   -2.134575    2.532630 H         1 <1>         0.027160 
     19 H           0.933153   -2.773187    1.421771 H         1 <1>         0.027160 
     20 H           2.334851   -0.977965    2.028279 H         1 <1>         0.026909 
     21 H           1.015726   -0.336854    3.030257 H         1 <1>         0.026909 
     22 H          -1.065687    2.004543   -0.344276 H         1 <1>         0.029614 
     23 H          -2.172187    0.697132   -0.688710 H         1 <1>         0.029614 
     24 H           0.122960   -3.078042   -0.759734 H         1 <1>         0.031357 
     25 H           1.059386   -1.629898   -1.065341 H         1 <1>         0.031357 
     26 H           0.498898    2.336899    1.921786 H         1 <1>         0.029903 
     27 H          -2.654474   -1.641505   -0.211830 H         1 <1>         0.023606 
     28 H          -2.482033   -1.656681    1.554570 H         1 <1>         0.023606 
     29 H          -1.987413   -3.075422    0.607240 H         1 <1>         0.023606 
     30 H          -0.692773    1.569068   -2.634322 H         1 <1>         0.031079 
     31 H           0.644542    0.645974   -1.950409 H         1 <1>         0.031079 
     32 H          -1.187336    0.230564    2.529491 H         1 <1>         0.210195 
     33 H          -1.255195   -2.628600   -2.570178 H         1 <1>         0.057172 
     34 H           1.920324    3.829311    0.534493 H         1 <1>         0.023243 
     35 H           2.708498    2.432424   -0.241834 H         1 <1>         0.023243 
     36 H           1.017263    2.813836   -0.593874 H         1 <1>         0.023243 
     37 H           3.432797    1.393030    1.989072 H         1 <1>         0.023243 
     38 H           2.323986    1.499296    3.387393 H         1 <1>         0.023243 
     39 H           2.876225    2.973402    2.599379 H         1 <1>         0.023243 
     40 H          -2.280323   -1.298026   -4.250986 H         1 <1>         0.027436 
     41 H          -1.272178    0.115692   -4.648899 H         1 <1>         0.027436 
     42 H          -2.724371    0.306920   -3.618801 H         1 <1>         0.027436 
@<TRIPOS>BOND
     1    1    2 1    
     2    1   32 1    
     3    2    3 1    
     4    2    4 1    
     5    2    7 1    
     6    3    5 1    
     7    3    8 1    
     8    3   10 1    
     9    4    6 1    
    10    4    9 1    
    11    4   17 1    
    12    5    6 1    
    13    5   18 1    
    14    5   19 1    
    15    6   20 1    
    16    6   21 1    
    17    7   11 1    
    18    7   22 1    
    19    7   23 1    
    20    8   12 1    
    21    8   24 1    
    22    8   25 1    
    23    9   14 1    
    24    9   15 1    
    25    9   26 1    
    26   10   27 1    
    27   10   28 1    
    28   10   29 1    
    29   11   13 1    
    30   11   30 1    
    31   11   31 1    
    32   12   13 2    
    33   12   33 1    
    34   13   16 1    
    35   14   34 1    
    36   14   35 1    
    37   14   36 1    
    38   15   37 1    
    39   15   38 1    
    40   15   39 1    
    41   16   40 1    
    42   16   41 1    
    43   16   42 1    
@<TRIPOS>SUBSTRUCTURE
     1 ****        1 TEMP              0 ****  ****    0 ROOT 
@<TRIPOS>NORMAL
@<TRIPOS>FF_PBC
FORCE_FIELD_SETUP_FEATURE Force Field Setup information
v1.0  0 0.000000 0.000000 0.000000 0.000000 0.000000 0.000000 NONE 0 0 0 0 1 0 0 0 0 0 0 0 0
