@<TRIPOS>MOLECULE
MOL004942
   36    35     1     1     0
SMALL
GASTEIGER


@<TRIPOS>ATOM
      1 C          -0.839337   -0.655094    0.026817 C.3       1 <1>        -0.052779 
      2 C           0.487372    0.152911    0.020001 C.3       1 <1>        -0.053048 
      3 C          -0.577017   -2.163869    0.287315 C.3       1 <1>        -0.049616 
      4 C           0.235129    1.663631   -0.239818 C.3       1 <1>        -0.053057 
      5 C          -1.897514   -2.980354    0.296051 C.3       1 <1>        -0.034769 
      6 C          -1.652235   -4.449354    0.548829 C.2       1 <1>        -0.088193 
      7 C           1.566867    2.463645   -0.244917 C.3       1 <1>        -0.053065 
      8 C           1.323285    3.975700   -0.504155 C.3       1 <1>        -0.053306 
      9 C           2.658596    4.769142   -0.507900 C.3       1 <1>        -0.055911 
     10 C           2.418802    6.279390   -0.766528 C.3       1 <1>        -0.065276 
     11 C          -2.660959   -5.329974    0.595667 C.2       1 <1>        -0.091032 
     12 C          -2.465739   -6.805558    0.844969 C.3       1 <1>        -0.046819 
     13 H          -1.503754   -0.259167    0.812445 H         1 <1>         0.026538 
     14 H          -1.344739   -0.535065   -0.945578 H         1 <1>         0.026538 
     15 H           1.151066   -0.244890   -0.765316 H         1 <1>         0.026529 
     16 H           0.992102    0.030920    0.992540 H         1 <1>         0.026529 
     17 H           0.086605   -2.560572   -0.498908 H         1 <1>         0.026822 
     18 H          -0.072501   -2.284458    1.260382 H         1 <1>         0.026822 
     19 H          -0.427533    2.063234    0.545473 H         1 <1>         0.026528 
     20 H          -0.268538    1.787385   -1.212685 H         1 <1>         0.026528 
     21 H          -2.563797   -2.592856    1.083628 H         1 <1>         0.030732 
     22 H          -2.404670   -2.869029   -0.675935 H         1 <1>         0.030732 
     23 H          -0.628309   -4.795394    0.695900 H         1 <1>         0.056887 
     24 H           2.229137    2.062838   -1.029868 H         1 <1>         0.026528 
     25 H           2.070180    2.338619    0.727937 H         1 <1>         0.026528 
     26 H           0.662432    4.379143    0.280557 H         1 <1>         0.026520 
     27 H           0.821390    4.103350   -1.477321 H         1 <1>         0.026520 
     28 H           3.322623    4.371111   -1.293370 H         1 <1>         0.026265 
     29 H           3.163628    4.646971    0.464906 H         1 <1>         0.026265 
     30 H           3.378046    6.821261   -0.764801 H         1 <1>         0.022978 
     31 H           1.774474    6.706218    0.017846 H         1 <1>         0.022978 
     32 H           1.933750    6.429857   -1.743598 H         1 <1>         0.022978 
     33 H          -3.682046   -4.974418    0.447357 H         1 <1>         0.056620 
     34 H          -1.407225   -7.073750    0.982923 H         1 <1>         0.027170 
     35 H          -3.019659   -7.097663    1.749945 H         1 <1>         0.027170 
     36 H          -2.860213   -7.374061   -0.010789 H         1 <1>         0.027170 
@<TRIPOS>BOND
     1    1    2 1    
     2    1    3 1    
     3    1   13 1    
     4    1   14 1    
     5    2    4 1    
     6    2   15 1    
     7    2   16 1    
     8    3    5 1    
     9    3   17 1    
    10    3   18 1    
    11    4    7 1    
    12    4   19 1    
    13    4   20 1    
    14    5    6 1    
    15    5   21 1    
    16    5   22 1    
    17    6   11 2    
    18    6   23 1    
    19    7    8 1    
    20    7   24 1    
    21    7   25 1    
    22    8    9 1    
    23    8   26 1    
    24    8   27 1    
    25    9   10 1    
    26    9   28 1    
    27    9   29 1    
    28   10   30 1    
    29   10   31 1    
    30   10   32 1    
    31   11   12 1    
    32   11   33 1    
    33   12   34 1    
    34   12   35 1    
    35   12   36 1    
@<TRIPOS>SUBSTRUCTURE
     1 ****        1 TEMP              0 ****  ****    0 ROOT 
@<TRIPOS>NORMAL
@<TRIPOS>FF_PBC
FORCE_FIELD_SETUP_FEATURE Force Field Setup information
v1.0  0 0.000000 0.000000 0.000000 0.000000 0.000000 0.000000 NONE 0 0 0 0 1 0 0 0 0 0 0 0 0
