@<TRIPOS>MOLECULE
MOL005816
   38    37     1     1     0
SMALL
GASTEIGER


@<TRIPOS>ATOM
      1 C          -4.250870   -5.124390    0.000089 C.2       1 <1>         0.145687 
      2 C          -2.846395   -4.657073    0.000117 C.2       1 <1>        -0.015172 
      3 C          -2.584845   -3.338829    0.000107 C.2       1 <1>        -0.077768 
      4 C          -1.198353   -2.733372    0.000087 C.3       1 <1>        -0.030449 
      5 C          -1.231811   -1.179460    0.000554 C.3       1 <1>        -0.028543 
      6 C           0.071312   -0.392831    0.000134 C.2       1 <1>        -0.075949 
      7 C           0.020939    0.949974   -0.000616 C.2       1 <1>        -0.081268 
      8 C           1.244288    1.842228   -0.001165 C.3       1 <1>        -0.015764 
      9 C           0.933290    3.325132   -0.000864 C.2       1 <1>        -0.077369 
     10 C           1.865756    4.295367   -0.000631 C.2       1 <1>        -0.054618 
     11 C           1.410945    5.714432   -0.000611 C.2       1 <1>        -0.066231 
     12 C           2.149160    6.833796    0.001864 C.2       1 <1>        -0.098453 
     13 O          -4.503192   -6.318437    0.000175 O.2       1 <1>        -0.296053 
     14 C           3.333533    3.914242   -0.000540 C.3       1 <1>        -0.040013 
     15 C           1.398203   -1.128945    0.000628 C.3       1 <1>        -0.043769 
     16 C          -1.770297   -5.721463    0.000136 C.3       1 <1>        -0.036978 
     17 H          -5.091072   -4.430602   -0.000003 H         1 <1>         0.107783 
     18 H          -3.426582   -2.644618    0.000085 H         1 <1>         0.057568 
     19 H          -0.673329   -3.080962    0.904371 H         1 <1>         0.031054 
     20 H          -0.673727   -3.080463   -0.904622 H         1 <1>         0.031054 
     21 H          -1.798396   -0.861794   -0.890336 H         1 <1>         0.031286 
     22 H          -1.797628   -0.862189    0.892065 H         1 <1>         0.031286 
     23 H          -0.965513    1.415209   -0.000885 H         1 <1>         0.057461 
     24 H           1.836851    1.610231    0.895857 H         1 <1>         0.034987 
     25 H           1.835141    1.610557   -0.899387 H         1 <1>         0.034987 
     26 H          -0.119257    3.608989   -0.000896 H         1 <1>         0.057771 
     27 H           0.333622    5.893801   -0.002861 H         1 <1>         0.061432 
     28 H           1.660025    7.809312    0.001392 H         1 <1>         0.053489 
     29 H           3.235003    6.865069    0.004471 H         1 <1>         0.053489 
     30 H           4.019672    4.767808   -0.002818 H         1 <1>         0.027744 
     31 H           3.564363    3.320074    0.895741 H         1 <1>         0.027744 
     32 H           3.563846    3.316388   -0.894483 H         1 <1>         0.027744 
     33 H           1.335537   -2.222744   -0.000663 H         1 <1>         0.027436 
     34 H           1.970661   -0.842471    0.894987 H         1 <1>         0.027436 
     35 H           1.972547   -0.840716   -0.891951 H         1 <1>         0.027436 
     36 H          -0.741285   -5.338239   -0.000341 H         1 <1>         0.027840 
     37 H          -1.895394   -6.351883    0.893371 H         1 <1>         0.027840 
     38 H          -1.895934   -6.352507   -0.892582 H         1 <1>         0.027840 
@<TRIPOS>BOND
     1    1    2 1    
     2    1   13 2    
     3    1   17 1    
     4    2    3 2    
     5    2   16 1    
     6    3    4 1    
     7    3   18 1    
     8    4    5 1    
     9    4   19 1    
    10    4   20 1    
    11    5    6 1    
    12    5   21 1    
    13    5   22 1    
    14    6    7 2    
    15    6   15 1    
    16    7    8 1    
    17    7   23 1    
    18    8    9 1    
    19    8   24 1    
    20    8   25 1    
    21    9   10 2    
    22    9   26 1    
    23   10   11 1    
    24   10   14 1    
    25   11   12 2    
    26   11   27 1    
    27   12   28 1    
    28   12   29 1    
    29   14   30 1    
    30   14   31 1    
    31   14   32 1    
    32   15   33 1    
    33   15   34 1    
    34   15   35 1    
    35   16   36 1    
    36   16   37 1    
    37   16   38 1    
@<TRIPOS>SUBSTRUCTURE
     1 ****        1 TEMP              0 ****  ****    0 ROOT 
@<TRIPOS>NORMAL
@<TRIPOS>FF_PBC
FORCE_FIELD_SETUP_FEATURE Force Field Setup information
v1.0  0 0.000000 0.000000 0.000000 0.000000 0.000000 0.000000 NONE 0 0 0 0 1 0 0 0 0 0 0 0 0
