@<TRIPOS>MOLECULE
MOL000130
   27    28     1     1     0
SMALL
GASTEIGER


@<TRIPOS>ATOM
      1 C           0.814248    0.349491   -0.133639 C.3       1 <1>         0.031574 
      2 C          -0.362204   -0.659549   -0.210749 C.3       1 <1>        -0.019611 
      3 C           0.959970    0.402827    1.364608 C.2       1 <1>         0.139987 
      4 C           0.181669    1.720426   -0.498134 C.3       1 <1>        -0.040130 
      5 C           2.101178   -0.000460   -0.918430 C.3       1 <1>        -0.052324 
      6 C          -1.233402    0.193216    0.761508 C.3       1 <1>        -0.028287 
      7 C          -0.017473   -2.087062    0.328407 C.3       1 <1>        -0.058660 
      8 C          -0.985514   -0.846415   -1.631449 C.3       1 <1>        -0.058660 
      9 C          -0.371330    0.321387    2.051605 C.3       1 <1>         0.009733 
     10 O           2.026275    0.470945    1.953521 O.2       1 <1>        -0.296801 
     11 C          -1.254940    1.598952    0.090125 C.3       1 <1>        -0.048410 
     12 H          -2.240731   -0.207827    0.959857 H         1 <1>         0.031024 
     13 H           0.167068    1.881916   -1.587466 H         1 <1>         0.027481 
     14 H           0.752158    2.548295   -0.044537 H         1 <1>         0.027481 
     15 H           1.887591   -0.067998   -1.995195 H         1 <1>         0.023926 
     16 H           2.510342   -0.961075   -0.572529 H         1 <1>         0.023926 
     17 H           2.855409    0.783806   -0.754244 H         1 <1>         0.023926 
     18 H           0.565764   -2.647514   -0.417541 H         1 <1>         0.023535 
     19 H          -0.952552   -2.636963    0.514012 H         1 <1>         0.023535 
     20 H           0.572881   -2.102221    1.254430 H         1 <1>         0.023535 
     21 H          -0.293019   -1.406000   -2.277837 H         1 <1>         0.023535 
     22 H          -1.229742    0.078851   -2.165372 H         1 <1>         0.023535 
     23 H          -1.914449   -1.429404   -1.539478 H         1 <1>         0.023535 
     24 H          -0.443647   -0.566530    2.697088 H         1 <1>         0.034460 
     25 H          -0.587904    1.215259    2.655942 H         1 <1>         0.034460 
     26 H          -1.479951    2.404453    0.807885 H         1 <1>         0.026849 
     27 H          -2.028095    1.649492   -0.692585 H         1 <1>         0.026849 
@<TRIPOS>BOND
     1    1    2 1    
     2    1    3 1    
     3    1    4 1    
     4    1    5 1    
     5    2    6 1    
     6    2    7 1    
     7    2    8 1    
     8    3    9 1    
     9    3   10 2    
    10    4   11 1    
    11    4   13 1    
    12    4   14 1    
    13    5   15 1    
    14    5   16 1    
    15    5   17 1    
    16    6    9 1    
    17    6   11 1    
    18    6   12 1    
    19    7   18 1    
    20    7   19 1    
    21    7   20 1    
    22    8   21 1    
    23    8   22 1    
    24    8   23 1    
    25    9   24 1    
    26    9   25 1    
    27   11   26 1    
    28   11   27 1    
@<TRIPOS>SUBSTRUCTURE
     1 ****        1 TEMP              0 ****  ****    0 ROOT 
@<TRIPOS>NORMAL
@<TRIPOS>FF_PBC
FORCE_FIELD_SETUP_FEATURE Force Field Setup information
v1.0  0 0.000000 0.000000 0.000000 0.000000 0.000000 0.000000 NONE 0 0 0 0 1 0 0 0 0 0 0 0 0
