@<TRIPOS>MOLECULE
MOL004716
   23    24     1     1     0
SMALL
GASTEIGER


@<TRIPOS>ATOM
      1 C          -0.360623   -1.250645   -0.508310 C.3       1 <1>        -0.019350 
      2 C           1.174459    0.407837   -0.638117 C.3       1 <1>        -0.019350 
      3 C           0.478394   -0.568991   -1.613536 C.3       1 <1>        -0.039971 
      4 C           0.743337   -1.716206    0.478039 C.3       1 <1>        -0.045956 
      5 C           1.802457   -0.572418    0.388109 C.3       1 <1>        -0.045956 
      6 C          -0.963526   -0.010499    0.095995 C.2       1 <1>        -0.070270 
      7 C          -0.059463    0.966611    0.019127 C.2       1 <1>        -0.070270 
      8 C          -2.360233   -0.041632    0.657718 C.3       1 <1>        -0.043270 
      9 C          -0.097621    2.404497    0.464619 C.3       1 <1>        -0.043270 
     10 H          -1.072986   -2.016766   -0.854115 H         1 <1>         0.034576 
     11 H           1.851916    1.142901   -1.101516 H         1 <1>         0.034576 
     12 H          -0.136703   -0.059348   -2.375573 H         1 <1>         0.027667 
     13 H           1.178938   -1.256691   -2.115698 H         1 <1>         0.027667 
     14 H           0.339555   -1.845884    1.495558 H         1 <1>         0.027115 
     15 H           1.166265   -2.676588    0.139312 H         1 <1>         0.027115 
     16 H           2.763940   -0.950891    0.003005 H         1 <1>         0.027115 
     17 H           1.979062   -0.076373    1.356564 H         1 <1>         0.027115 
     18 H          -2.417299   -0.813010    1.439968 H         1 <1>         0.027453 
     19 H          -3.068573   -0.294091   -0.145152 H         1 <1>         0.027453 
     20 H          -2.654325    0.922314    1.094473 H         1 <1>         0.027453 
     21 H           0.714348    2.580326    1.185687 H         1 <1>         0.027453 
     22 H          -1.052069    2.667202    0.940498 H         1 <1>         0.027453 
     23 H           0.051049    3.058744   -0.407152 H         1 <1>         0.027453 
@<TRIPOS>BOND
     1    1    3 1    
     2    1    4 1    
     3    1    6 1    
     4    1   10 1    
     5    3    2 1    
     6    2    5 1    
     7    2    7 1    
     8    2   11 1    
     9    3   12 1    
    10    3   13 1    
    11    4    5 1    
    12    4   14 1    
    13    4   15 1    
    14    5   16 1    
    15    5   17 1    
    16    6    7 2    
    17    6    8 1    
    18    7    9 1    
    19    8   18 1    
    20    8   19 1    
    21    8   20 1    
    22    9   21 1    
    23    9   22 1    
    24    9   23 1    
@<TRIPOS>SUBSTRUCTURE
     1 ****        1 TEMP              0 ****  ****    0 ROOT 
@<TRIPOS>NORMAL
@<TRIPOS>FF_PBC
FORCE_FIELD_SETUP_FEATURE Force Field Setup information
v1.0  0 0.000000 0.000000 0.000000 0.000000 0.000000 0.000000 NONE 0 0 0 0 1 0 0 0 0 0 0 0 0
