@<TRIPOS>MOLECULE
MOL000302
   35    34     1     1     0
SMALL
GASTEIGER


@<TRIPOS>ATOM
      1 C           6.331675    0.376789   -0.000044 C.2       1 <1>         0.259588 
      2 C           5.078601   -0.460081    0.000135 C.3       1 <1>         0.033006 
      3 C           3.787718    0.402917   -0.000070 C.3       1 <1>        -0.044061 
      4 C           2.511592   -0.482738    0.000121 C.3       1 <1>        -0.052596 
      5 C           1.223085    0.384710   -0.000094 C.3       1 <1>        -0.053045 
      6 C          -0.055245   -0.497866    0.000105 C.3       1 <1>        -0.053057 
      7 C          -1.341716    0.372739   -0.000117 C.3       1 <1>        -0.053057 
      8 C          -2.622697   -0.505893    0.000103 C.3       1 <1>        -0.053065 
      9 C          -3.906106    0.369088   -0.000117 C.3       1 <1>        -0.053306 
     10 C          -5.189107   -0.505858    0.000113 C.3       1 <1>        -0.055911 
     11 C          -6.468287    0.371136   -0.000108 C.3       1 <1>        -0.065276 
     12 O           6.304187    1.597768   -0.000315 O.2       1 <1>        -0.265177 
     13 O           7.474990   -0.311557    0.000116 O.3       1 <1>        -0.331267 
     14 H           5.097065   -1.102959    0.893994 H         1 <1>         0.036600 
     15 H           5.097079   -1.103362   -0.893433 H         1 <1>         0.036600 
     16 H           3.786178    1.048679   -0.893954 H         1 <1>         0.027004 
     17 H           3.786164    1.049082    0.893520 H         1 <1>         0.027004 
     18 H           2.515801   -1.128529    0.893674 H         1 <1>         0.026540 
     19 H           2.515819   -1.128940   -0.893139 H         1 <1>         0.026540 
     20 H           1.219093    1.030770   -0.893558 H         1 <1>         0.026529 
     21 H           1.219081    1.031190    0.893066 H         1 <1>         0.026529 
     22 H          -0.052398   -1.143667    0.893659 H         1 <1>         0.026528 
     23 H          -0.052384   -1.144095   -0.893134 H         1 <1>         0.026528 
     24 H          -1.343877    1.018573   -0.893590 H         1 <1>         0.026528 
     25 H          -1.343881    1.019019    0.893043 H         1 <1>         0.026528 
     26 H          -2.622042   -1.151740    0.893625 H         1 <1>         0.026528 
     27 H          -2.622039   -1.152187   -0.893092 H         1 <1>         0.026528 
     28 H          -3.907124    1.014992   -0.893601 H         1 <1>         0.026520 
     29 H          -3.907120    1.015449    0.893035 H         1 <1>         0.026520 
     30 H          -5.195436   -1.152063    0.893741 H         1 <1>         0.026265 
     31 H          -5.195442   -1.152521   -0.893186 H         1 <1>         0.026265 
     32 H          -7.365881   -0.267247    0.000060 H         1 <1>         0.022978 
     33 H          -6.494712    1.011983   -0.895218 H         1 <1>         0.022978 
     34 H          -6.494704    1.012443    0.894671 H         1 <1>         0.022978 
     35 H           8.232172    0.263876   -0.000008 H         1 <1>         0.220208 
@<TRIPOS>BOND
     1    1    2 1    
     2    1   12 2    
     3    1   13 1    
     4    2    3 1    
     5    2   14 1    
     6    2   15 1    
     7    3    4 1    
     8    3   16 1    
     9    3   17 1    
    10    4    5 1    
    11    4   18 1    
    12    4   19 1    
    13    5    6 1    
    14    5   20 1    
    15    5   21 1    
    16    6    7 1    
    17    6   22 1    
    18    6   23 1    
    19    7    8 1    
    20    7   24 1    
    21    7   25 1    
    22    8    9 1    
    23    8   26 1    
    24    8   27 1    
    25    9   10 1    
    26    9   28 1    
    27    9   29 1    
    28   10   11 1    
    29   10   30 1    
    30   10   31 1    
    31   11   32 1    
    32   11   33 1    
    33   11   34 1    
    34   13   35 1    
@<TRIPOS>SUBSTRUCTURE
     1 ****        1 TEMP              0 ****  ****    0 ROOT 
@<TRIPOS>NORMAL
@<TRIPOS>FF_PBC
FORCE_FIELD_SETUP_FEATURE Force Field Setup information
v1.0  0 0.000000 0.000000 0.000000 0.000000 0.000000 0.000000 NONE 0 0 0 0 1 0 0 0 0 0 0 0 0
