@<TRIPOS>MOLECULE
MOL002210
   32    33     1     1     0
SMALL
GASTEIGER


@<TRIPOS>ATOM
      1 C          -1.805334    2.687806   -0.325744 C.3       1 <1>         0.111861 
      2 C          -3.117125    1.987964    0.131212 C.3       1 <1>         0.085679 
      3 C          -3.166485    0.520579   -0.384880 C.3       1 <1>        -0.020013 
      4 C          -2.017561   -0.329534    0.223593 C.3       1 <1>        -0.022274 
      5 C          -0.732835    0.439204    0.100774 C.2       1 <1>        -0.005583 
      6 C          -0.652692    1.741004   -0.142777 C.2       1 <1>         0.060723 
      7 C           0.669392    0.003778    0.205528 C.2       1 <1>         0.086239 
      8 O           1.586509    0.962996    0.019637 O.3       1 <1>        -0.274143 
      9 C           0.784054    2.012406   -0.180977 C.2       1 <1>         0.297669 
     10 O           1.219218    3.133752   -0.384109 O.2       1 <1>        -0.259073 
     11 C           1.044927   -1.252185    0.476624 C.2       1 <1>        -0.053069 
     12 C           2.485722   -1.696908    0.582832 C.3       1 <1>        -0.032278 
     13 C           2.741980   -2.922132   -0.333573 C.3       1 <1>        -0.052380 
     14 C           4.213706   -3.402850   -0.239250 C.3       1 <1>        -0.064997 
     15 O          -1.581292    3.879955    0.450752 O.3       1 <1>        -0.384407 
     16 O          -4.241237    2.728441   -0.381870 O.3       1 <1>        -0.388882 
     17 H          -1.893241    2.930787   -1.398369 H         1 <1>         0.067144 
     18 H          -3.136606    1.987535    1.235460 H         1 <1>         0.062249 
     19 H          -3.075769    0.537669   -1.483520 H         1 <1>         0.029412 
     20 H          -4.132743    0.055451   -0.129284 H         1 <1>         0.029412 
     21 H          -1.946820   -1.298147   -0.296081 H         1 <1>         0.031491 
     22 H          -2.204106   -0.511947    1.293674 H         1 <1>         0.031491 
     23 H           0.277055   -2.008422    0.638389 H         1 <1>         0.059779 
     24 H           3.181531   -0.888980    0.305842 H         1 <1>         0.030812 
     25 H           2.683555   -1.972463    1.630613 H         1 <1>         0.030812 
     26 H           2.074224   -3.749269   -0.039157 H         1 <1>         0.026559 
     27 H           2.513442   -2.648297   -1.376938 H         1 <1>         0.026559 
     28 H           4.368765   -4.278653   -0.889178 H         1 <1>         0.022987 
     29 H           4.900900   -2.603898   -0.559236 H         1 <1>         0.022987 
     30 H           4.459489   -3.686783    0.795935 H         1 <1>         0.022987 
     31 H          -0.787996    4.344371    0.196755 H         1 <1>         0.210347 
     32 H          -5.081844    2.380720   -0.100283 H         1 <1>         0.209902 
@<TRIPOS>BOND
     1    1    2 1    
     2    1    6 1    
     3    1   15 1    
     4    1   17 1    
     5    2    3 1    
     6    2   16 1    
     7    2   18 1    
     8    3    4 1    
     9    3   19 1    
    10    3   20 1    
    11    4    5 1    
    12    4   21 1    
    13    4   22 1    
    14    5    6 2    
    15    5    7 1    
    16    6    9 1    
    17    7    8 1    
    18    7   11 2    
    19    8    9 1    
    20    9   10 2    
    21   11   12 1    
    22   11   23 1    
    23   12   13 1    
    24   12   24 1    
    25   12   25 1    
    26   13   14 1    
    27   13   26 1    
    28   13   27 1    
    29   14   28 1    
    30   14   29 1    
    31   14   30 1    
    32   15   31 1    
    33   16   32 1    
@<TRIPOS>SUBSTRUCTURE
     1 ****        1 TEMP              0 ****  ****    0 ROOT 
@<TRIPOS>NORMAL
@<TRIPOS>FF_PBC
FORCE_FIELD_SETUP_FEATURE Force Field Setup information
v1.0  0 0.000000 0.000000 0.000000 0.000000 0.000000 0.000000 NONE 0 0 0 0 1 0 0 0 0 0 0 0 0
