@<TRIPOS>MOLECULE
MOL002157
   62    65     1     1     0
SMALL
GASTEIGER


@<TRIPOS>ATOM
      1 O           2.352701    0.833697    0.702979 O.3       1 <1>        -0.274202 
      2 C           1.041301    0.699366    0.482979 C.2       1 <1>         0.295407 
      3 C           0.523867   -0.679480    0.423387 C.2       1 <1>         0.034647 
      4 C           1.616592   -1.413298    0.605154 C.2       1 <1>        -0.007913 
      5 C           2.710714   -0.448735    0.793405 C.2       1 <1>         0.086162 
      6 C           1.609831   -2.913367    0.575615 C.3       1 <1>        -0.024491 
      7 C           0.655603   -3.263544   -0.590348 C.3       1 <1>        -0.045000 
      8 C          -0.789999   -2.738338   -0.327711 C.3       1 <1>        -0.026236 
      9 C          -1.610387   -2.853719   -1.645715 C.3       1 <1>        -0.018679 
     10 C          -1.135804   -1.736991   -2.535425 C.2       1 <1>        -0.070806 
     11 C          -1.249027   -0.504297   -2.030048 C.2       1 <1>         0.034260 
     12 C          -1.854025   -0.425081   -0.641369 C.3       1 <1>         0.066388 
     13 C          -0.860424   -1.263616    0.225911 C.3       1 <1>         0.010058 
     14 C          -3.224075   -1.174769   -0.669455 C.3       1 <1>        -0.035303 
     15 C          -3.103721   -2.561043   -1.367082 C.3       1 <1>        -0.045258 
     16 C          -0.765132    0.661876   -2.798039 C.2       1 <1>         0.290216 
     17 O           0.302830    1.160784   -2.486436 O.2       1 <1>        -0.259564 
     18 O          -1.443944    1.174027   -3.839777 O.3       1 <1>        -0.314979 
     19 C           3.985440   -0.775345    1.045120 C.2       1 <1>        -0.053070 
     20 C           5.092582    0.235839    1.237660 C.3       1 <1>        -0.032278 
     21 C           6.152447    0.080100    0.115105 C.3       1 <1>        -0.052380 
     22 C           7.334804    1.064143    0.312495 C.3       1 <1>        -0.064997 
     23 C          -2.150275    0.990048   -0.171651 C.2       1 <1>         0.144501 
     24 C          -2.388852    1.250582    1.301825 C.3       1 <1>         0.006729 
     25 C          -2.682044    2.748448    1.590920 C.3       1 <1>        -0.046594 
     26 C          -2.925765    2.998055    3.104764 C.3       1 <1>        -0.055527 
     27 C          -3.217686    4.493940    3.392203 C.3       1 <1>        -0.065266 
     28 O          -2.222540    1.906765   -0.973346 O.2       1 <1>        -0.296447 
     29 O           0.343225    1.688786    0.353075 O.2       1 <1>        -0.259157 
     30 H          -1.242646   -3.426722    0.409031 H         1 <1>         0.031272 
     31 H          -1.492813   -3.840842   -2.125005 H         1 <1>         0.034599 
     32 H          -1.266128   -1.317629    1.249010 H         1 <1>         0.036636 
     33 C          -2.747865    0.609519   -4.077305 C.3       1 <1>         0.046187 
     34 H           2.609212   -3.327236    0.374887 H         1 <1>         0.031417 
     35 H           1.237157   -3.311882    1.531927 H         1 <1>         0.031417 
     36 H           0.637194   -4.357230   -0.735399 H         1 <1>         0.027143 
     37 H           1.063871   -2.812663   -1.510686 H         1 <1>         0.027143 
     38 H          -0.713417   -1.928895   -3.522601 H         1 <1>         0.057969 
     39 H          -3.588234   -1.323682    0.359290 H         1 <1>         0.027821 
     40 H          -3.977741   -0.564640   -1.193561 H         1 <1>         0.027821 
     41 H          -3.645495   -2.562912   -2.328827 H         1 <1>         0.027135 
     42 H          -3.534483   -3.361807   -0.742427 H         1 <1>         0.027135 
     43 H           4.270936   -1.823092    1.123334 H         1 <1>         0.059779 
     44 H           4.710592    1.269353    1.234454 H         1 <1>         0.030812 
     45 H           5.559393    0.053981    2.219066 H         1 <1>         0.030812 
     46 H           6.541510   -0.952164    0.112253 H         1 <1>         0.026559 
     47 H           5.675022    0.271540   -0.860693 H         1 <1>         0.026559 
     48 H           8.069784    0.939872   -0.498328 H         1 <1>         0.022987 
     49 H           6.976088    2.105086    0.302997 H         1 <1>         0.022987 
     50 H           7.837496    0.871781    1.273131 H         1 <1>         0.022987 
     51 H          -1.510629    0.957030    1.894977 H         1 <1>         0.034182 
     52 H          -3.250358    0.659200    1.643548 H         1 <1>         0.034182 
     53 H          -3.573057    3.060917    1.021214 H         1 <1>         0.026919 
     54 H          -1.825296    3.356139    1.253974 H         1 <1>         0.026919 
     55 H          -2.035292    2.690216    3.678004 H         1 <1>         0.026275 
     56 H          -3.782152    2.392606    3.446108 H         1 <1>         0.026275 
     57 H          -3.386724    4.645991    4.470081 H         1 <1>         0.022978 
     58 H          -4.116573    4.822262    2.847027 H         1 <1>         0.022978 
     59 H          -2.366258    5.118540    3.079890 H         1 <1>         0.022978 
     60 H          -3.177788    1.141723   -4.938637 H         1 <1>         0.052972 
     61 H          -2.708586   -0.461086   -4.328656 H         1 <1>         0.052972 
     62 H          -3.412871    0.768746   -3.215248 H         1 <1>         0.052972 
@<TRIPOS>BOND
     1    1    2 1    
     2    1    5 1    
     3    2    3 1    
     4    2   29 2    
     5    3    4 2    
     6    3   13 1    
     7    4    5 1    
     8    4    6 1    
     9    5   19 2    
    10    6    7 1    
    11    6   34 1    
    12    6   35 1    
    13    7    8 1    
    14    7   36 1    
    15    7   37 1    
    16    8    9 1    
    17    8   13 1    
    18    8   30 1    
    19    9   10 1    
    20    9   15 1    
    21    9   31 1    
    22   10   11 2    
    23   10   38 1    
    24   11   12 1    
    25   11   16 1    
    26   12   13 1    
    27   12   14 1    
    28   12   23 1    
    29   13   32 1    
    30   14   15 1    
    31   14   39 1    
    32   14   40 1    
    33   15   41 1    
    34   15   42 1    
    35   16   17 2    
    36   16   18 1    
    37   18   33 1    
    38   19   20 1    
    39   19   43 1    
    40   20   21 1    
    41   20   44 1    
    42   20   45 1    
    43   21   22 1    
    44   21   46 1    
    45   21   47 1    
    46   22   48 1    
    47   22   49 1    
    48   22   50 1    
    49   23   24 1    
    50   23   28 2    
    51   24   25 1    
    52   24   51 1    
    53   24   52 1    
    54   25   26 1    
    55   25   53 1    
    56   25   54 1    
    57   26   27 1    
    58   26   55 1    
    59   26   56 1    
    60   27   57 1    
    61   27   58 1    
    62   27   59 1    
    63   33   60 1    
    64   33   61 1    
    65   33   62 1    
@<TRIPOS>SUBSTRUCTURE
     1 ****        1 TEMP              0 ****  ****    0 ROOT 
@<TRIPOS>NORMAL
@<TRIPOS>FF_PBC
FORCE_FIELD_SETUP_FEATURE Force Field Setup information
v1.0  0 0.000000 0.000000 0.000000 0.000000 0.000000 0.000000 NONE 0 0 0 0 1 0 0 0 0 0 0 0 0
