@<TRIPOS>MOLECULE
MOL002166
   23    22     1     1     0
SMALL
GASTEIGER


@<TRIPOS>ATOM
      1 C           3.496676   -0.150831    0.280920 C.3       1 <1>        -0.065276 
      2 C           2.121304   -0.868231    0.271166 C.3       1 <1>        -0.055903 
      3 C           0.952341    0.148848    0.154451 C.3       1 <1>        -0.053073 
      4 C          -0.424706   -0.572405    0.130656 C.3       1 <1>        -0.050717 
      5 C          -1.644028    0.398230    0.175850 C.3       1 <1>        -0.046721 
      6 C          -1.689432    1.352333   -1.050862 C.3       1 <1>        -0.062665 
      7 C          -2.964755   -0.419385    0.251280 C.3       1 <1>        -0.062665 
      8 H           4.309180   -0.889931    0.364739 H         1 <1>         0.022978 
      9 H           3.639622    0.421496   -0.648925 H         1 <1>         0.022978 
     10 H           3.563150    0.540627    1.135368 H         1 <1>         0.022978 
     11 H           2.016446   -1.450653    1.201803 H         1 <1>         0.026265 
     12 H           2.086143   -1.569269   -0.579568 H         1 <1>         0.026265 
     13 H           1.093244    0.727067   -0.771963 H         1 <1>         0.026528 
     14 H           0.987969    0.843396    1.009635 H         1 <1>         0.026528 
     15 H          -0.478603   -1.234612    1.010468 H         1 <1>         0.026777 
     16 H          -0.488373   -1.202484   -0.771338 H         1 <1>         0.026777 
     17 H          -1.574302    1.012590    1.091138 H         1 <1>         0.029548 
     18 H          -2.611707    1.953593   -1.034105 H         1 <1>         0.023233 
     19 H          -0.841055    2.052172   -1.045816 H         1 <1>         0.023233 
     20 H          -1.667832    0.774083   -1.987223 H         1 <1>         0.023233 
     21 H          -3.833891    0.252612    0.327250 H         1 <1>         0.023233 
     22 H          -2.965088   -1.077071    1.134506 H         1 <1>         0.023233 
     23 H          -3.082303   -1.041974   -0.649031 H         1 <1>         0.023233 
@<TRIPOS>BOND
     1    1    2 1    
     2    1    8 1    
     3    1    9 1    
     4    1   10 1    
     5    2    3 1    
     6    2   11 1    
     7    2   12 1    
     8    3    4 1    
     9    3   13 1    
    10    3   14 1    
    11    4    5 1    
    12    4   15 1    
    13    4   16 1    
    14    5    6 1    
    15    5    7 1    
    16    5   17 1    
    17    6   18 1    
    18    6   19 1    
    19    6   20 1    
    20    7   21 1    
    21    7   22 1    
    22    7   23 1    
@<TRIPOS>SUBSTRUCTURE
     1 ****        1 TEMP              0 ****  ****    0 ROOT 
@<TRIPOS>NORMAL
@<TRIPOS>FF_PBC
FORCE_FIELD_SETUP_FEATURE Force Field Setup information
v1.0  0 0.000000 0.000000 0.000000 0.000000 0.000000 0.000000 NONE 0 0 0 0 1 0 0 0 0 0 0 0 0
