@<TRIPOS>MOLECULE
MOL000896
   41    41     1     1     0
SMALL
GASTEIGER


@<TRIPOS>ATOM
      1 C          -1.806842    1.129178    0.101466 C.2       1 <1>         0.136835 
      2 C          -0.395205    0.779801   -0.223620 C.3       1 <1>         0.015840 
      3 C           0.993120    1.460116   -0.196503 C.3       1 <1>         0.026793 
      4 C           1.905075    0.600708   -1.087204 C.2       1 <1>         0.140996 
      5 C           2.130102   -0.896781   -0.836128 C.3       1 <1>         0.027007 
      6 C           0.912340   -1.748031   -0.490204 C.2       1 <1>        -0.069447 
      7 C          -0.145269   -1.790024   -1.322382 C.2       1 <1>        -0.084605 
      8 C          -1.546901   -2.289757   -1.006361 C.3       1 <1>        -0.033878 
      9 C          -2.407510   -1.479772    0.043487 C.3       1 <1>        -0.040321 
     10 C          -2.827504    0.028017   -0.203081 C.3       1 <1>         0.014986 
     11 O          -2.115597    2.209615    0.577056 O.2       1 <1>        -0.297104 
     12 O           2.476501    1.130543   -2.026882 O.2       1 <1>        -0.296759 
     13 C           1.599311    1.650234    1.227567 C.3       1 <1>        -0.036801 
     14 C           2.964108    2.389007    1.135147 C.3       1 <1>        -0.062015 
     15 C           0.635140    2.433816    2.160231 C.3       1 <1>        -0.062015 
     16 C          -3.408345    0.219657   -1.630324 C.3       1 <1>        -0.055690 
     17 C           0.958581   -2.453497    0.850683 C.3       1 <1>        -0.043386 
     18 H          -0.550488    0.544717   -1.280187 H         1 <1>         0.034850 
     19 H          -0.295601   -0.037785    0.484948 H         1 <1>         0.034850 
     20 H           0.871007    2.451519   -0.664227 H         1 <1>         0.038397 
     21 H           2.579917   -1.338843   -1.738833 H         1 <1>         0.038678 
     22 H           2.887138   -0.961050   -0.040165 H         1 <1>         0.038678 
     23 H           0.001816   -1.370189   -2.320856 H         1 <1>         0.057165 
     24 H          -1.464795   -3.337855   -0.677493 H         1 <1>         0.030759 
     25 H          -2.114948   -2.320001   -1.950447 H         1 <1>         0.030759 
     26 H          -3.354286   -2.044714    0.109918 H         1 <1>         0.027480 
     27 H          -1.946146   -1.558955    1.039975 H         1 <1>         0.027480 
     28 H          -3.649591    0.235418    0.505897 H         1 <1>         0.037464 
     29 H           1.784446    0.663638    1.683554 H         1 <1>         0.030227 
     30 H           3.675209    1.825484    0.511748 H         1 <1>         0.023252 
     31 H           3.409170    2.505049    2.135705 H         1 <1>         0.023252 
     32 H           2.830034    3.389369    0.695686 H         1 <1>         0.023252 
     33 H          -0.279268    1.854119    2.353865 H         1 <1>         0.023252 
     34 H           1.114474    2.632105    3.131393 H         1 <1>         0.023252 
     35 H           0.356099    3.396533    1.705201 H         1 <1>         0.023252 
     36 H          -3.806524    1.240776   -1.741253 H         1 <1>         0.023641 
     37 H          -4.228508   -0.492982   -1.809544 H         1 <1>         0.023641 
     38 H          -2.639022    0.066629   -2.400846 H         1 <1>         0.023641 
     39 H           0.066546   -3.054629    1.067730 H         1 <1>         0.027446 
     40 H           1.083789   -1.729517    1.668275 H         1 <1>         0.027446 
     41 H           1.823202   -3.134038    0.856851 H         1 <1>         0.027446 
@<TRIPOS>BOND
     1    1    2 1    
     2    1   10 1    
     3    1   11 2    
     4    2    3 1    
     5    2   18 1    
     6    2   19 1    
     7    3    4 1    
     8    3   13 1    
     9    3   20 1    
    10    4    5 1    
    11    4   12 2    
    12    5    6 1    
    13    5   21 1    
    14    5   22 1    
    15    6    7 2    
    16    6   17 1    
    17    7    8 1    
    18    7   23 1    
    19    8    9 1    
    20    8   24 1    
    21    8   25 1    
    22    9   10 1    
    23    9   26 1    
    24    9   27 1    
    25   10   16 1    
    26   10   28 1    
    27   13   14 1    
    28   13   15 1    
    29   13   29 1    
    30   14   30 1    
    31   14   31 1    
    32   14   32 1    
    33   15   33 1    
    34   15   34 1    
    35   15   35 1    
    36   16   36 1    
    37   16   37 1    
    38   16   38 1    
    39   17   39 1    
    40   17   40 1    
    41   17   41 1    
@<TRIPOS>SUBSTRUCTURE
     1 ****        1 TEMP              0 ****  ****    0 ROOT 
@<TRIPOS>NORMAL
@<TRIPOS>FF_PBC
FORCE_FIELD_SETUP_FEATURE Force Field Setup information
v1.0  0 0.000000 0.000000 0.000000 0.000000 0.000000 0.000000 NONE 0 0 0 0 1 0 0 0 0 0 0 0 0
