@<TRIPOS>MOLECULE
MOL002868
   31    30     1     1     0
SMALL
GASTEIGER


@<TRIPOS>ATOM
      1 C           6.861550    0.457731    0.000066 C.1       1 <1>        -0.119173 
      2 C           5.821222   -0.147775   -0.000029 C.1       1 <1>        -0.105573 
      3 C           4.558926   -0.880498   -0.000136 C.3       1 <1>         0.008885 
      4 C           3.363275    0.107312    0.000085 C.3       1 <1>        -0.042179 
      5 C           2.006981   -0.649314   -0.000087 C.3       1 <1>        -0.052205 
      6 C           0.808360    0.338615    0.000131 C.3       1 <1>        -0.053029 
      7 C          -0.548406   -0.417638   -0.000079 C.3       1 <1>        -0.053057 
      8 C          -1.746860    0.570590    0.000133 C.3       1 <1>        -0.053065 
      9 C          -3.103712   -0.185363   -0.000083 C.3       1 <1>        -0.053306 
     10 C          -4.301718    0.802944    0.000128 C.3       1 <1>        -0.055911 
     11 C          -5.655767    0.046736   -0.000081 C.3       1 <1>        -0.065276 
     12 H           7.774120    0.989054    0.000156 H         1 <1>         0.122794 
     13 H           4.532566   -1.520377   -0.895895 H         1 <1>         0.039728 
     14 H           4.532595   -1.520767    0.895350 H         1 <1>         0.039728 
     15 H           3.426348    0.750211    0.893868 H         1 <1>         0.027427 
     16 H           3.426347    0.750623   -0.893405 H         1 <1>         0.027427 
     17 H           1.949410   -1.292573   -0.893631 H         1 <1>         0.026556 
     18 H           1.949402   -1.292990    0.893156 H         1 <1>         0.026556 
     19 H           0.866630    0.981880    0.893607 H         1 <1>         0.026529 
     20 H           0.866662    0.982325   -0.893024 H         1 <1>         0.026529 
     21 H          -0.606789   -1.060870   -0.893574 H         1 <1>         0.026528 
     22 H          -0.606827   -1.061309    0.893098 H         1 <1>         0.026528 
     23 H          -1.688765    1.213852    0.893609 H         1 <1>         0.026528 
     24 H          -1.688723    1.214296   -0.893024 H         1 <1>         0.026528 
     25 H          -3.163064   -0.828461   -0.893610 H         1 <1>         0.026520 
     26 H          -3.163109   -0.828904    0.893122 H         1 <1>         0.026520 
     27 H          -4.249043    1.447114    0.893768 H         1 <1>         0.026265 
     28 H          -4.249001    1.447552   -0.893197 H         1 <1>         0.026265 
     29 H          -6.491062    0.764849    0.000059 H         1 <1>         0.022978 
     30 H          -5.740758   -0.588948   -0.895239 H         1 <1>         0.022978 
     31 H          -5.740791   -0.589400    0.894760 H         1 <1>         0.022978 
@<TRIPOS>BOND
     1    1    2 3    
     2    1   12 1    
     3    2    3 1    
     4    3    4 1    
     5    3   13 1    
     6    3   14 1    
     7    4    5 1    
     8    4   15 1    
     9    4   16 1    
    10    5    6 1    
    11    5   17 1    
    12    5   18 1    
    13    6    7 1    
    14    6   19 1    
    15    6   20 1    
    16    7    8 1    
    17    7   21 1    
    18    7   22 1    
    19    8    9 1    
    20    8   23 1    
    21    8   24 1    
    22    9   10 1    
    23    9   25 1    
    24    9   26 1    
    25   10   11 1    
    26   10   27 1    
    27   10   28 1    
    28   11   29 1    
    29   11   30 1    
    30   11   31 1    
@<TRIPOS>SUBSTRUCTURE
     1 ****        1 TEMP              0 ****  ****    0 ROOT 
@<TRIPOS>NORMAL
@<TRIPOS>FF_PBC
FORCE_FIELD_SETUP_FEATURE Force Field Setup information
v1.0  0 0.000000 0.000000 0.000000 0.000000 0.000000 0.000000 NONE 0 0 0 0 1 0 0 0 0 0 0 0 0
