@<TRIPOS>MOLECULE
MOL000459
   25    24     1     1     0
SMALL
GASTEIGER


@<TRIPOS>ATOM
      1 C           2.651866    1.169684   -1.949985 C.2       1 <1>        -0.100226 
      2 C           2.677073    0.107167   -1.136157 C.2       1 <1>        -0.063006 
      3 C           2.489572    0.197415    0.359343 C.3       1 <1>         0.073114 
      4 C           1.155938   -0.484501    0.771445 C.3       1 <1>        -0.023254 
      5 C          -0.073101    0.220983    0.133254 C.3       1 <1>        -0.050434 
      6 C          -1.400917   -0.479728    0.533372 C.3       1 <1>        -0.053216 
      7 C          -2.629576    0.222127   -0.107682 C.3       1 <1>        -0.055910 
      8 C          -3.949095   -0.504830    0.264412 C.3       1 <1>        -0.065276 
      9 O           3.611617   -0.486883    0.943192 O.3       1 <1>        -0.387778 
     10 H           2.795933    1.047553   -3.024305 H         1 <1>         0.053253 
     11 H           2.488157    2.178890   -1.572645 H         1 <1>         0.053253 
     12 H           2.839700   -0.886035   -1.558613 H         1 <1>         0.059165 
     13 H           2.483200    1.250525    0.692135 H         1 <1>         0.063734 
     14 H           1.187202   -1.542242    0.463725 H         1 <1>         0.029318 
     15 H           1.060392   -0.451890    1.868908 H         1 <1>         0.029318 
     16 H          -0.098947    1.273754    0.459868 H         1 <1>         0.026618 
     17 H           0.017953    0.201679   -0.964475 H         1 <1>         0.026618 
     18 H          -1.369763   -1.531014    0.202324 H         1 <1>         0.026521 
     19 H          -1.506325   -0.465303    1.630119 H         1 <1>         0.026521 
     20 H          -2.683209    1.267575    0.238036 H         1 <1>         0.026265 
     21 H          -2.522902    0.228031   -1.205089 H         1 <1>         0.026265 
     22 H          -4.807083    0.002986   -0.204153 H         1 <1>         0.022978 
     23 H          -3.925644   -1.547902   -0.088101 H         1 <1>         0.022978 
     24 H          -4.093279   -0.503025    1.355831 H         1 <1>         0.022978 
     25 H           3.601637   -0.484915    1.895141 H         1 <1>         0.210206 
@<TRIPOS>BOND
     1    1    2 2    
     2    1   10 1    
     3    1   11 1    
     4    2    3 1    
     5    2   12 1    
     6    3    4 1    
     7    3    9 1    
     8    3   13 1    
     9    4    5 1    
    10    4   14 1    
    11    4   15 1    
    12    5    6 1    
    13    5   16 1    
    14    5   17 1    
    15    6    7 1    
    16    6   18 1    
    17    6   19 1    
    18    7    8 1    
    19    7   20 1    
    20    7   21 1    
    21    8   22 1    
    22    8   23 1    
    23    8   24 1    
    24    9   25 1    
@<TRIPOS>SUBSTRUCTURE
     1 ****        1 TEMP              0 ****  ****    0 ROOT 
@<TRIPOS>NORMAL
@<TRIPOS>FF_PBC
FORCE_FIELD_SETUP_FEATURE Force Field Setup information
v1.0  0 0.000000 0.000000 0.000000 0.000000 0.000000 0.000000 NONE 0 0 0 0 1 0 0 0 0 0 0 0 0
