@<TRIPOS>MOLECULE
MOL001015
   34    35     1     1     0
SMALL
GASTEIGER


@<TRIPOS>ATOM
      1 C          -1.819562   -1.138273    0.421258 C.3       1 <1>        -0.044479 
      2 C          -0.505692   -0.298394    0.465395 C.3       1 <1>         0.000147 
      3 C          -0.731056    0.908834   -0.510821 C.3       1 <1>         0.074168 
      4 C          -1.744984   -1.806069   -0.980175 C.3       1 <1>        -0.049032 
      5 C          -0.612146    0.218984   -1.900241 C.3       1 <1>        -0.022132 
      6 C          -0.391460   -1.273743   -1.531645 C.3       1 <1>        -0.032912 
      7 C           0.520249   -1.208098   -0.277184 C.3       1 <1>        -0.024220 
      8 C          -0.110778    0.078173    1.916989 C.3       1 <1>        -0.056682 
      9 C           1.929631   -0.576132   -0.530621 C.3       1 <1>        -0.058979 
     10 C           0.800644   -2.608360    0.367057 C.3       1 <1>        -0.058979 
     11 O           0.252712    1.965169   -0.427328 O.3       1 <1>        -0.311511 
     12 C           0.071020    2.853394    0.561051 C.2       1 <1>         0.259313 
     13 C           1.187702    3.845811    0.727869 C.3       1 <1>         0.021443 
     14 O          -0.905704    2.877682    1.292509 O.2       1 <1>        -0.265274 
     15 H          -1.854920   -1.886780    1.227446 H         1 <1>         0.027158 
     16 H          -2.722250   -0.517717    0.540424 H         1 <1>         0.027158 
     17 H          -1.739527    1.349833   -0.423288 H         1 <1>         0.060766 
     18 H          -1.740841   -2.905478   -0.915164 H         1 <1>         0.026830 
     19 H          -2.597735   -1.528358   -1.620762 H         1 <1>         0.026830 
     20 H          -1.507656    0.365023   -2.525769 H         1 <1>         0.029330 
     21 H           0.236887    0.608077   -2.482093 H         1 <1>         0.029330 
     22 H           0.004160   -1.873101   -2.367943 H         1 <1>         0.030693 
     23 H           0.812103    0.674859    1.931541 H         1 <1>         0.023604 
     24 H          -0.921613    0.650422    2.389775 H         1 <1>         0.023604 
     25 H           0.056463   -0.827281    2.518055 H         1 <1>         0.023604 
     26 H           2.500077   -1.226789   -1.210565 H         1 <1>         0.023525 
     27 H           2.484474   -0.504320    0.416661 H         1 <1>         0.023525 
     28 H           1.942588    0.424127   -0.972292 H         1 <1>         0.023525 
     29 H          -0.076913   -3.192256    0.663500 H         1 <1>         0.023525 
     30 H           1.361038   -3.225433   -0.351680 H         1 <1>         0.023525 
     31 H           1.420192   -2.495448    1.269123 H         1 <1>         0.023525 
     32 H           0.801452    4.785395    1.150679 H         1 <1>         0.033023 
     33 H           1.940683    3.426065    1.410971 H         1 <1>         0.033023 
     34 H           1.660862    4.059979   -0.242535 H         1 <1>         0.033023 
@<TRIPOS>BOND
     1    1    2 1    
     2    1    4 1    
     3    1   15 1    
     4    1   16 1    
     5    2    3 1    
     6    2    7 1    
     7    2    8 1    
     8    3    5 1    
     9    3   11 1    
    10    3   17 1    
    11    4    6 1    
    12    4   18 1    
    13    4   19 1    
    14    5    6 1    
    15    5   20 1    
    16    5   21 1    
    17    6    7 1    
    18    6   22 1    
    19    7    9 1    
    20    7   10 1    
    21    8   23 1    
    22    8   24 1    
    23    8   25 1    
    24    9   26 1    
    25    9   27 1    
    26    9   28 1    
    27   10   29 1    
    28   10   30 1    
    29   10   31 1    
    30   11   12 1    
    31   12   13 1    
    32   12   14 2    
    33   13   32 1    
    34   13   33 1    
    35   13   34 1    
@<TRIPOS>SUBSTRUCTURE
     1 ****        1 TEMP              0 ****  ****    0 ROOT 
@<TRIPOS>NORMAL
@<TRIPOS>FF_PBC
FORCE_FIELD_SETUP_FEATURE Force Field Setup information
v1.0  0 0.000000 0.000000 0.000000 0.000000 0.000000 0.000000 NONE 0 0 0 0 1 0 0 0 0 0 0 0 0
