@<TRIPOS>MOLECULE
MOL004988
   59    63     1     1     0
SMALL
GASTEIGER


@<TRIPOS>ATOM
      1 C           0.226256   -3.458029    1.011627 C.3       1 <1>         0.063815 
      2 C          -0.301542   -2.293378    0.149246 C.3       1 <1>         0.041504 
      3 C           0.436549   -1.002934    0.575308 C.3       1 <1>         0.103917 
      4 C           1.923439   -1.200506    0.310274 C.ar      1 <1>         0.042571 
      5 C           2.448943   -2.588346    0.392974 C.ar      1 <1>         0.086784 
      6 O           1.597399   -3.683485    0.623979 O.3       1 <1>        -0.343474 
      7 C           3.819896   -2.809044    0.219951 C.ar      1 <1>        -0.001113 
      8 C           4.739623   -1.684788   -0.070433 C.ar      1 <1>         0.080954 
      9 C           4.233936   -0.361990   -0.200083 C.ar      1 <1>         0.016475 
     10 C           2.783051   -0.123181    0.015937 C.ar      1 <1>         0.089842 
     11 C          -6.444826   -0.066626    0.157675 C.3       1 <1>         0.088836 
     12 C          -6.595183   -1.483656    0.673974 C.2       1 <1>        -0.051997 
     13 C          -5.528302   -2.259706    0.898228 C.2       1 <1>        -0.053367 
     14 C          -4.157677   -1.674159    0.658757 C.ar      1 <1>         0.005225 
     15 C          -4.076328   -0.198617    0.521239 C.ar      1 <1>         0.086857 
     16 O          -5.237745    0.562556    0.631903 O.3       1 <1>        -0.334126 
     17 C          -2.826680    0.436943    0.295486 C.ar      1 <1>        -0.000725 
     18 C          -1.623700   -0.418677    0.209162 C.ar      1 <1>         0.083075 
     19 C          -1.713812   -1.773281    0.325508 C.ar      1 <1>        -0.008577 
     20 C          -2.990992   -2.476985    0.569709 C.ar      1 <1>        -0.046069 
     21 O          -0.336857    0.086832    0.018461 O.3       1 <1>        -0.335665 
     22 O           6.099725   -1.948122   -0.221940 O.3       1 <1>        -0.359385 
     23 C           5.171324    0.803677   -0.553218 C.3       1 <1>        -0.004342 
     24 C           4.489985    1.821199   -1.438362 C.2       1 <1>        -0.080815 
     25 C           4.612332    3.154104   -1.331058 C.2       1 <1>        -0.079306 
     26 C           3.840649    4.088938   -2.237194 C.3       1 <1>        -0.044040 
     27 C           5.512491    3.821491   -0.314323 C.3       1 <1>        -0.044040 
     28 C          -7.618170    0.818321    0.651465 C.3       1 <1>        -0.031936 
     29 C          -6.418923   -0.113751   -1.392459 C.3       1 <1>        -0.031936 
     30 O           2.269448    1.170162   -0.060893 O.3       1 <1>        -0.347107 
     31 C           2.271175    1.885610    1.183239 C.3       1 <1>         0.043053 
     32 H          -0.349325   -4.376329    0.821123 H         1 <1>         0.057187 
     33 H           0.168093   -3.226334    2.086581 H         1 <1>         0.057187 
     34 H          -0.145561   -2.501979   -0.922326 H         1 <1>         0.040101 
     35 H           0.382062   -0.876880    1.672012 H         1 <1>         0.065993 
     36 H           4.213471   -3.816319    0.290722 H         1 <1>         0.066930 
     37 H          -7.592627   -1.890587    0.843306 H         1 <1>         0.060052 
     38 H          -5.634579   -3.289524    1.239498 H         1 <1>         0.062202 
     39 H          -2.754630    1.513135    0.193234 H         1 <1>         0.066945 
     40 H          -3.029890   -3.555514    0.672616 H         1 <1>         0.062786 
     41 H           6.619453   -1.460616    0.408214 H         1 <1>         0.217328 
     42 H           6.041711    0.438156   -1.118359 H         1 <1>         0.035721 
     43 H           5.518039    1.223410    0.401342 H         1 <1>         0.035721 
     44 H           3.849388    1.407612   -2.218837 H         1 <1>         0.057473 
     45 H           4.544193    4.652896   -2.867763 H         1 <1>         0.027427 
     46 H           3.265688    4.798336   -1.623240 H         1 <1>         0.027427 
     47 H           3.134562    3.561638   -2.896391 H         1 <1>         0.027427 
     48 H           5.740537    4.857892   -0.606305 H         1 <1>         0.027427 
     49 H           5.009286    3.840663    0.663677 H         1 <1>         0.027427 
     50 H           6.472803    3.293013   -0.221148 H         1 <1>         0.027427 
     51 H          -7.628717    0.837454    1.752020 H         1 <1>         0.026052 
     52 H          -8.584544    0.431501    0.293722 H         1 <1>         0.026052 
     53 H          -7.492910    1.848664    0.285226 H         1 <1>         0.026052 
     54 H          -5.587629   -0.743045   -1.744661 H         1 <1>         0.026052 
     55 H          -7.361025   -0.527031   -1.784298 H         1 <1>         0.026052 
     56 H          -6.281600    0.901357   -1.793832 H         1 <1>         0.026052 
     57 H           1.873237    2.893385    0.995795 H         1 <1>         0.052870 
     58 H           3.292326    1.976440    1.582638 H         1 <1>         0.052870 
     59 H           1.632615    1.386152    1.927014 H         1 <1>         0.052870 
@<TRIPOS>BOND
     1    2    1 1    
     2    1    6 1    
     3    1   32 1    
     4    1   33 1    
     5    2    3 1    
     6   19    2 1    
     7    2   34 1    
     8    3    4 1    
     9    3   21 1    
    10    3   35 1    
    11    4    5 1    
    12    4   10 2    
    13    6    5 1    
    14    5    7 2    
    15    7    8 1    
    16    7   36 1    
    17    9    8 2    
    18    8   22 1    
    19   10    9 1    
    20    9   23 1    
    21   10   30 1    
    22   11   12 1    
    23   16   11 1    
    24   11   28 1    
    25   11   29 1    
    26   13   12 2    
    27   12   37 1    
    28   14   13 1    
    29   13   38 1    
    30   15   14 1    
    31   14   20 2    
    32   15   16 1    
    33   17   15 2    
    34   18   17 1    
    35   17   39 1    
    36   18   19 2    
    37   18   21 1    
    38   19   20 1    
    39   20   40 1    
    40   22   41 1    
    41   23   24 1    
    42   23   42 1    
    43   23   43 1    
    44   24   25 2    
    45   24   44 1    
    46   25   26 1    
    47   25   27 1    
    48   26   45 1    
    49   26   46 1    
    50   26   47 1    
    51   27   48 1    
    52   27   49 1    
    53   27   50 1    
    54   28   51 1    
    55   28   52 1    
    56   28   53 1    
    57   29   54 1    
    58   29   55 1    
    59   29   56 1    
    60   30   31 1    
    61   31   57 1    
    62   31   58 1    
    63   31   59 1    
@<TRIPOS>SUBSTRUCTURE
     1 ****       11 TEMP              0 ****  ****    0 ROOT 
@<TRIPOS>NORMAL
@<TRIPOS>FF_PBC
FORCE_FIELD_SETUP_FEATURE Force Field Setup information
v1.0  0 0.000000 0.000000 0.000000 0.000000 0.000000 0.000000 NONE 0 0 0 0 1 0 0 0 0 0 0 0 0
