@<TRIPOS>MOLECULE
MOL004593
  128   135     1     1     0
SMALL
GASTEIGER


@<TRIPOS>ATOM
      1 O           2.020995    1.071950   -4.458324 O.3       1 <1>        -0.367842 
      2 O           2.224218    5.329943   -3.755709 O.3       1 <1>        -0.391131 
      3 O          -2.548247   -2.897194    0.923842 O.3       1 <1>        -0.344807 
      4 O          -3.233894    1.319016    0.393464 O.3       1 <1>        -0.394374 
      5 O          -2.559256   -4.315741    2.697436 O.3       1 <1>        -0.343072 
      6 O           0.683449   -3.210046    1.579401 O.3       1 <1>        -0.384094 
      7 O          -1.346611   -2.716719    4.584496 O.3       1 <1>        -0.340053 
      8 O          -0.095867   -5.456405    5.221916 O.3       1 <1>        -0.386569 
      9 O          -2.434840   -2.207369    6.531367 O.3       1 <1>        -0.340519 
     10 O          -0.005752   -1.449927    7.836271 O.3       1 <1>        -0.384076 
     11 O          -0.466076   -0.075412    4.368820 O.3       1 <1>        -0.306624 
     12 O          -1.913613    0.571722    7.683732 O.3       1 <1>        -0.386461 
     13 O          -4.383892    0.095600    4.357977 O.3       1 <1>        -0.392366 
     14 O           0.810955   -0.088813    2.572466 O.2       1 <1>        -0.265272 
     15 C           0.391368    2.579096   -3.368803 C.3       1 <1>         0.009124 
     16 C           1.757225    1.798606   -3.242512 C.3       1 <1>         0.096991 
     17 C          -0.845948    1.524640   -3.539402 C.3       1 <1>        -0.016907 
     18 C           3.051436    2.656859   -3.118696 C.3       1 <1>         0.002843 
     19 C           3.119282    3.191524   -4.565675 C.3       1 <1>         0.025848 
     20 C          -0.453959    0.034440   -3.158018 C.3       1 <1>        -0.011151 
     21 C          -1.557020   -1.107458   -3.019924 C.3       1 <1>        -0.021744 
     22 C           0.572260    3.621038   -4.542279 C.3       1 <1>        -0.017380 
     23 C           1.990524    4.263235   -4.693616 C.3       1 <1>         0.063916 
     24 C          -2.763442   -0.627821   -2.122406 C.3       1 <1>        -0.025206 
     25 C          -2.079003    1.857977   -2.625252 C.3       1 <1>        -0.046183 
     26 C           2.766241    1.903016   -5.371664 C.3       1 <1>         0.057154 
     27 C           4.383287    1.917231   -2.783383 C.3       1 <1>        -0.041426 
     28 C           4.532395    3.759809   -4.928579 C.3       1 <1>        -0.042066 
     29 C           1.552555    0.931454   -2.034360 C.2       1 <1>        -0.055410 
     30 C          -3.225303    0.804901   -2.557759 C.3       1 <1>        -0.048517 
     31 C           0.213122    3.479048   -2.086227 C.3       1 <1>        -0.056020 
     32 C           0.487225    0.133217   -1.979707 C.2       1 <1>        -0.081074 
     33 C           5.580605    2.927788   -2.725958 C.3       1 <1>        -0.034485 
     34 C          -2.799180   -0.950932   -0.564389 C.3       1 <1>         0.020641 
     35 C          -1.362142    1.563891   -5.017799 C.3       1 <1>        -0.058408 
     36 C          -0.908097   -2.453152   -2.497057 C.3       1 <1>        -0.044437 
     37 C           5.314813    4.160652   -3.653058 C.3       1 <1>        -0.047195 
     38 C          -2.157276   -1.560319   -4.414529 C.3       1 <1>        -0.058736 
     39 C          -1.955292   -2.231131   -0.220303 C.3       1 <1>         0.069511 
     40 C          -1.800952   -3.167137   -1.446711 C.3       1 <1>        -0.025376 
     41 C          -2.326660    0.199842    0.388925 C.3       1 <1>         0.052209 
     42 C           6.888249    2.190505   -3.151092 C.3       1 <1>        -0.059801 
     43 C           5.788614    3.452334   -1.270366 C.3       1 <1>        -0.059801 
     44 C          -4.286017   -1.235432   -0.137005 C.3       1 <1>        -0.054821 
     45 C          -1.690452   -3.778259    1.686082 C.3       1 <1>         0.188127 
     46 C          -0.516669   -3.007956    2.359449 C.3       1 <1>         0.134483 
     47 C          -0.329662   -3.425067    3.844316 C.3       1 <1>         0.120486 
     48 C          -1.944700   -5.339960    3.510457 C.3       1 <1>         0.087317 
     49 C          -0.486877   -4.963541    3.925196 C.3       1 <1>         0.109842 
     50 C          -2.896086   -5.538827    4.718606 C.3       1 <1>        -0.036060 
     51 C          -1.147344   -2.562676    6.000819 C.3       1 <1>         0.188464 
     52 C          -0.107609   -1.476786    6.396635 C.3       1 <1>         0.134979 
     53 C          -0.530394   -0.095031    5.815968 C.3       1 <1>         0.126812 
     54 C          -2.954511   -0.957903    6.028905 C.3       1 <1>         0.113032 
     55 C          -1.977220    0.227325    6.281710 C.3       1 <1>         0.112752 
     56 C          -3.486245   -1.013418    4.568339 C.3       1 <1>         0.073015 
     57 C           0.729458    0.117350    3.772230 C.2       1 <1>         0.259456 
     58 C           1.953313    0.621419    4.505308 C.3       1 <1>         0.021445 
     59 H           1.595345    6.041876   -3.824058 H         1 <1>         0.209802 
     60 H          -2.975407    2.018558    0.986957 H         1 <1>         0.209420 
     61 H           1.412696   -2.665390    1.862186 H         1 <1>         0.210111 
     62 H          -0.106134   -6.407093    5.280935 H         1 <1>         0.210002 
     63 H           0.599766   -0.795871    8.170381 H         1 <1>         0.210111 
     64 H          -2.750448    0.832616    8.055733 H         1 <1>         0.210004 
     65 H          -4.766655    0.105747    3.484602 H         1 <1>         0.209508 
     66 H           2.965147    3.430812   -2.349110 H         1 <1>         0.033899 
     67 H           0.196617   -0.354385   -3.954048 H         1 <1>         0.035379 
     68 H          -0.188225    4.415378   -4.477592 H         1 <1>         0.029668 
     69 H           0.443160    3.168601   -5.526799 H         1 <1>         0.029668 
     70 H           2.067736    4.715210   -5.701609 H         1 <1>         0.059965 
     71 H          -3.593837   -1.263280   -2.471069 H         1 <1>         0.031301 
     72 H          -2.526283    2.813897   -2.944527 H         1 <1>         0.027097 
     73 H          -1.764658    1.964063   -1.586244 H         1 <1>         0.027097 
     74 H           2.245961    2.099133   -6.319654 H         1 <1>         0.056652 
     75 H           3.642199    1.295323   -5.640294 H         1 <1>         0.056652 
     76 H           4.340336    1.393394   -1.819163 H         1 <1>         0.027428 
     77 H           4.567849    1.136938   -3.533754 H         1 <1>         0.027428 
     78 H           4.440311    4.634810   -5.591634 H         1 <1>         0.027239 
     79 H           5.146076    3.024578   -5.468642 H         1 <1>         0.027239 
     80 H           2.221239    0.965940   -1.175795 H         1 <1>         0.059762 
     81 H          -4.001627    1.175022   -1.873105 H         1 <1>         0.026847 
     82 H          -3.733574    0.784278   -3.531007 H         1 <1>         0.026847 
     83 H           0.250613    2.906981   -1.148294 H         1 <1>         0.023625 
     84 H          -0.732178    4.037823   -2.114782 H         1 <1>         0.023625 
     85 H           0.966450    4.264587   -1.985271 H         1 <1>         0.023625 
     86 H           0.378306   -0.406613   -1.047089 H         1 <1>         0.057297 
     87 H          -2.246138    0.975174   -5.220485 H         1 <1>         0.023543 
     88 H          -1.687308    2.576072   -5.298788 H         1 <1>         0.023543 
     89 H          -0.593128    1.194201   -5.713135 H         1 <1>         0.023543 
     90 H          -0.696352   -3.173820   -3.305605 H         1 <1>         0.027158 
     91 H           0.086213   -2.334309   -2.052358 H         1 <1>         0.027158 
     92 H           6.269416    4.638123   -3.929032 H         1 <1>         0.027062 
     93 H           4.718822    4.926671   -3.131899 H         1 <1>         0.027062 
     94 H          -2.995941   -0.973610   -4.795460 H         1 <1>         0.023534 
     95 H          -2.606982   -2.564607   -4.348352 H         1 <1>         0.023534 
     96 H          -1.380442   -1.603005   -5.193071 H         1 <1>         0.023534 
     97 H          -0.942232   -1.909404    0.047246 H         1 <1>         0.060308 
     98 H          -1.297608   -4.103085   -1.161287 H         1 <1>         0.029048 
     99 H          -2.784481   -3.439781   -1.857616 H         1 <1>         0.029048 
    100 H          -1.309826    0.535415    0.152880 H         1 <1>         0.056334 
    101 H          -2.297493   -0.189351    1.420265 H         1 <1>         0.056334 
    102 H           7.762207    2.853385   -3.057362 H         1 <1>         0.023499 
    103 H           7.055174    1.311782   -2.508830 H         1 <1>         0.023499 
    104 H           6.835274    1.844769   -4.193849 H         1 <1>         0.023499 
    105 H           4.873179    3.921322   -0.879635 H         1 <1>         0.023499 
    106 H           6.065646    2.632171   -0.590064 H         1 <1>         0.023499 
    107 H           6.594761    4.201941   -1.245761 H         1 <1>         0.023499 
    108 H          -4.395049   -1.327662    0.955049 H         1 <1>         0.023667 
    109 H          -4.652924   -2.174785   -0.579155 H         1 <1>         0.023667 
    110 H          -4.962508   -0.429544   -0.453930 H         1 <1>         0.023667 
    111 H          -1.314084   -4.613444    1.076395 H         1 <1>         0.093748 
    112 H          -0.787094   -1.941820    2.378419 H         1 <1>         0.067105 
    113 H           0.683968   -3.129847    4.151618 H         1 <1>         0.065136 
    114 H          -1.925130   -6.287956    2.944734 H         1 <1>         0.062075 
    115 H           0.222386   -5.378239    3.184598 H         1 <1>         0.064594 
    116 H          -2.955662   -4.620718    5.319259 H         1 <1>         0.025536 
    117 H          -3.907949   -5.774497    4.353129 H         1 <1>         0.025536 
    118 H          -2.564036   -6.365365    5.364180 H         1 <1>         0.025536 
    119 H          -0.880445   -3.515285    6.483150 H         1 <1>         0.093753 
    120 H           0.874907   -1.774063    6.006336 H         1 <1>         0.067122 
    121 H           0.071840    0.715706    6.254725 H         1 <1>         0.065660 
    122 H          -3.858271   -0.790194    6.636191 H         1 <1>         0.064668 
    123 H          -2.329310    1.115308    5.726867 H         1 <1>         0.064699 
    124 H          -2.678314   -0.947988    3.827588 H         1 <1>         0.058370 
    125 H          -4.016906   -1.970516    4.425554 H         1 <1>         0.058370 
    126 H           1.779689    1.654572    4.840823 H         1 <1>         0.033023 
    127 H           2.809635    0.636870    3.813597 H         1 <1>         0.033023 
    128 H           2.238559    0.000185    5.363621 H         1 <1>         0.033023 
@<TRIPOS>BOND
     1   16    1 1    
     2    1   26 1    
     3   23    2 1    
     4    2   59 1    
     5    3   39 1    
     6   45    3 1    
     7   41    4 1    
     8    4   60 1    
     9   45    5 1    
    10   48    5 1    
    11   46    6 1    
    12    6   61 1    
    13    7   47 1    
    14   51    7 1    
    15   49    8 1    
    16    8   62 1    
    17    9   51 1    
    18   54    9 1    
    19   52   10 1    
    20   10   63 1    
    21   53   11 1    
    22   11   57 1    
    23   55   12 1    
    24   12   64 1    
    25   56   13 1    
    26   13   65 1    
    27   57   14 2    
    28   15   16 1    
    29   17   15 1    
    30   15   22 1    
    31   15   31 1    
    32   16   18 1    
    33   29   16 1    
    34   20   17 1    
    35   25   17 1    
    36   17   35 1    
    37   18   19 1    
    38   18   27 1    
    39   18   66 1    
    40   23   19 1    
    41   19   26 1    
    42   19   28 1    
    43   21   20 1    
    44   20   32 1    
    45   20   67 1    
    46   24   21 1    
    47   36   21 1    
    48   21   38 1    
    49   22   23 1    
    50   22   68 1    
    51   22   69 1    
    52   23   70 1    
    53   24   30 1    
    54   34   24 1    
    55   24   71 1    
    56   30   25 1    
    57   25   72 1    
    58   25   73 1    
    59   26   74 1    
    60   26   75 1    
    61   27   33 1    
    62   27   76 1    
    63   27   77 1    
    64   28   37 1    
    65   28   78 1    
    66   28   79 1    
    67   32   29 2    
    68   29   80 1    
    69   30   81 1    
    70   30   82 1    
    71   31   83 1    
    72   31   84 1    
    73   31   85 1    
    74   32   86 1    
    75   33   37 1    
    76   33   42 1    
    77   33   43 1    
    78   39   34 1    
    79   34   41 1    
    80   34   44 1    
    81   35   87 1    
    82   35   88 1    
    83   35   89 1    
    84   40   36 1    
    85   36   90 1    
    86   36   91 1    
    87   37   92 1    
    88   37   93 1    
    89   38   94 1    
    90   38   95 1    
    91   38   96 1    
    92   39   40 1    
    93   39   97 1    
    94   40   98 1    
    95   40   99 1    
    96   41  100 1    
    97   41  101 1    
    98   42  102 1    
    99   42  103 1    
   100   42  104 1    
   101   43  105 1    
   102   43  106 1    
   103   43  107 1    
   104   44  108 1    
   105   44  109 1    
   106   44  110 1    
   107   46   45 1    
   108   45  111 1    
   109   47   46 1    
   110   46  112 1    
   111   47   49 1    
   112   47  113 1    
   113   49   48 1    
   114   48   50 1    
   115   48  114 1    
   116   49  115 1    
   117   50  116 1    
   118   50  117 1    
   119   50  118 1    
   120   51   52 1    
   121   51  119 1    
   122   53   52 1    
   123   52  120 1    
   124   55   53 1    
   125   53  121 1    
   126   54   55 1    
   127   54   56 1    
   128   54  122 1    
   129   55  123 1    
   130   56  124 1    
   131   56  125 1    
   132   57   58 1    
   133   58  126 1    
   134   58  127 1    
   135   58  128 1    
@<TRIPOS>SUBSTRUCTURE
     1 ****        1 TEMP              0 ****  ****    0 ROOT 
@<TRIPOS>NORMAL
@<TRIPOS>FF_PBC
FORCE_FIELD_SETUP_FEATURE Force Field Setup information
v1.0  0 0.000000 0.000000 0.000000 0.000000 0.000000 0.000000 NONE 0 0 0 0 1 0 0 0 0 0 0 0 0
