@<TRIPOS>MOLECULE
MOL004557
   51    53     1     1     0
SMALL
GASTEIGER


@<TRIPOS>ATOM
      1 C          -1.546008    0.190152    3.809267 C.3       1 <1>         0.111896 
      2 C          -0.844655   -0.962510    3.038953 C.3       1 <1>         0.113007 
      3 O           0.439030   -0.568425    2.507482 O.3       1 <1>        -0.340431 
      4 C           0.399126    0.588200    1.654765 C.3       1 <1>         0.190802 
      5 C          -0.160325    1.810871    2.434403 C.3       1 <1>         0.134212 
      6 C          -1.585644    1.488086    2.952862 C.3       1 <1>         0.114063 
      7 O          -0.346213    0.192500    0.486189 O.3       1 <1>        -0.319115 
      8 H           1.454257    0.782281    1.415992 H         1 <1>         0.093840 
      9 C          -0.287787    1.069773   -0.656456 C.3       1 <1>         0.174328 
     10 O          -1.287948    0.550941   -1.537376 O.3       1 <1>        -0.321655 
     11 C          -1.021956   -0.652543   -2.068519 C.2       1 <1>         0.052281 
     12 C           0.207435   -1.196782   -2.103765 C.2       1 <1>         0.050785 
     13 C           1.438148   -0.474105   -1.576216 C.3       1 <1>         0.006330 
     14 C           1.088739    1.015098   -1.350499 C.3       1 <1>         0.041105 
     15 C           1.205843    1.500440   -2.767120 C.2       1 <1>        -0.039915 
     16 C           1.997156    0.718142   -3.503811 C.2       1 <1>        -0.081574 
     17 C           2.517315   -0.434078   -2.692396 C.3       1 <1>        -0.026630 
     18 C           0.269714   -2.521135   -2.777211 C.2       1 <1>         0.291730 
     19 O          -0.213480   -2.618015   -3.892930 O.2       1 <1>        -0.259507 
     20 C           0.481044    2.748345   -3.200511 C.3       1 <1>         0.065735 
     21 O           0.932092    3.133525   -4.511571 O.3       1 <1>        -0.390724 
     22 O          -2.484922    1.404667    1.830096 O.3       1 <1>        -0.386401 
     23 O           0.750298    2.130883    3.508293 O.3       1 <1>        -0.384103 
     24 O          -0.831986    0.407589    5.045484 O.3       1 <1>        -0.386488 
     25 C          -1.776288   -1.669339    2.012123 C.3       1 <1>         0.073015 
     26 O          -2.886255   -2.317429    2.664819 O.3       1 <1>        -0.392366 
     27 H           1.796091   -0.889924   -0.624547 H         1 <1>         0.036163 
     28 H           1.859097    1.542035   -0.765554 H         1 <1>         0.040171 
     29 O           0.794090   -3.636080   -2.235106 O.3       1 <1>        -0.314939 
     30 C           1.391550   -3.544370   -0.932973 C.3       1 <1>         0.046187 
     31 H          -2.573793   -0.123792    4.061166 H         1 <1>         0.064673 
     32 H          -0.587905   -1.734892    3.781760 H         1 <1>         0.064668 
     33 H          -0.212312    2.689359    1.772306 H         1 <1>         0.067096 
     34 H          -1.926798    2.327133    3.583400 H         1 <1>         0.064758 
     35 H          -0.594276    2.102272   -0.434052 H         1 <1>         0.092073 
     36 H          -1.881847   -1.164986   -2.500871 H         1 <1>         0.089058 
     37 H           2.242042    0.886576   -4.551431 H         1 <1>         0.057263 
     38 H           2.590488   -1.370277   -3.266790 H         1 <1>         0.031347 
     39 H           3.509256   -0.176809   -2.287468 H         1 <1>         0.031347 
     40 H          -0.602472    2.540961   -3.209517 H         1 <1>         0.060399 
     41 H           0.691288    3.553306   -2.476720 H         1 <1>         0.060399 
     42 H           0.501938    3.917350   -4.840163 H         1 <1>         0.209834 
     43 H          -3.390203    1.234527    2.074573 H         1 <1>         0.210005 
     44 H           0.478202    2.874174    4.037481 H         1 <1>         0.210110 
     45 H          -1.218162    1.074280    5.604589 H         1 <1>         0.210004 
     46 H          -1.193376   -2.404421    1.433406 H         1 <1>         0.058370 
     47 H          -2.224707   -0.964796    1.301223 H         1 <1>         0.058370 
     48 H          -2.626199   -3.016464    3.257708 H         1 <1>         0.209508 
     49 H           1.571998   -4.576952   -0.600177 H         1 <1>         0.052972 
     50 H           0.738875   -3.060409   -0.189901 H         1 <1>         0.052972 
     51 H           2.372056   -3.051425   -0.989891 H         1 <1>         0.052972 
@<TRIPOS>BOND
     1    1    2 1    
     2    1    6 1    
     3    1   24 1    
     4    1   31 1    
     5    2    3 1    
     6    2   25 1    
     7    2   32 1    
     8    3    4 1    
     9    4    5 1    
    10    4    7 1    
    11    4    8 1    
    12    5    6 1    
    13    5   23 1    
    14    5   33 1    
    15    6   22 1    
    16    6   34 1    
    17    7    9 1    
    18    9   10 1    
    19    9   14 1    
    20    9   35 1    
    21   10   11 1    
    22   11   12 2    
    23   11   36 1    
    24   12   13 1    
    25   12   18 1    
    26   13   14 1    
    27   13   17 1    
    28   13   27 1    
    29   14   15 1    
    30   14   28 1    
    31   15   16 2    
    32   15   20 1    
    33   16   17 1    
    34   16   37 1    
    35   17   38 1    
    36   17   39 1    
    37   18   19 2    
    38   18   29 1    
    39   20   21 1    
    40   20   40 1    
    41   20   41 1    
    42   21   42 1    
    43   22   43 1    
    44   23   44 1    
    45   24   45 1    
    46   25   26 1    
    47   25   46 1    
    48   25   47 1    
    49   26   48 1    
    50   29   30 1    
    51   30   49 1    
    52   30   50 1    
    53   30   51 1    
@<TRIPOS>SUBSTRUCTURE
     1 ****        1 TEMP              0 ****  ****    0 ROOT 
@<TRIPOS>NORMAL
@<TRIPOS>FF_PBC
FORCE_FIELD_SETUP_FEATURE Force Field Setup information
v1.0  0 0.000000 0.000000 0.000000 0.000000 0.000000 0.000000 NONE 0 0 0 0 1 0 0 0 0 0 0 0 0
