@<TRIPOS>MOLECULE
MOL001942
   34    36     1     1     0
SMALL
GASTEIGER


@<TRIPOS>ATOM
      1 O           0.294046    0.596359    0.692418 O.3       1 <1>        -0.339114 
      2 O          -3.646530    3.153785   -0.222935 O.2       1 <1>        -0.212229 
      3 O          -3.930226   -1.829608   -0.188804 O.3       1 <1>        -0.273400 
      4 O          -3.946227   -4.032719   -0.154530 O.2       1 <1>        -0.259480 
      5 C          -1.816420    1.825434    0.206636 C.ar      1 <1>         0.117634 
      6 C          -1.065186    0.569260    0.397423 C.ar      1 <1>         0.102570 
      7 C          -1.775230   -0.650496    0.276415 C.ar      1 <1>         0.036918 
      8 C          -3.141332    1.859112   -0.086366 C.ar      1 <1>         0.367818 
      9 C          -3.223753   -0.635016   -0.051451 C.ar      1 <1>         0.104969 
     10 C          -3.900502    0.595781   -0.229506 C.ar      1 <1>         0.074360 
     11 C          -1.378423    3.222223    0.279522 C.ar      1 <1>         0.053227 
     12 C          -1.114179   -1.991966    0.471487 C.2       1 <1>        -0.043936 
     13 C           1.161107    0.592741   -0.454890 C.3       1 <1>         0.072693 
     14 C          -2.514778    3.950632    0.015539 C.ar      1 <1>         0.322710 
     15 C          -1.870195   -3.082767    0.321411 C.2       1 <1>         0.011032 
     16 C           2.579108    0.691804    0.053471 C.2       1 <1>        -0.059467 
     17 C          -3.305342   -3.004352   -0.020749 C.2       1 <1>         0.291584 
     18 C           3.522415   -0.259801   -0.042669 C.2       1 <1>        -0.077462 
     19 C           4.923015   -0.036119    0.487202 C.3       1 <1>        -0.043978 
     20 C           3.269188   -1.609492   -0.676976 C.3       1 <1>        -0.043978 
     21 H          -4.957905    0.614710   -0.467709 H         1 <1>         0.073822 
     22 H          -0.380756    3.589949    0.495165 H         1 <1>         0.071423 
     23 H          -0.057279   -2.061287    0.728530 H         1 <1>         0.062687 
     24 H           0.982458   -0.304237   -1.065686 H         1 <1>         0.060923 
     25 H           0.962188    1.474323   -1.085705 H         1 <1>         0.060923 
     26 H          -2.538472    5.037548   -0.007155 H         1 <1>         0.176011 
     27 H          -1.430207   -4.072038    0.452372 H         1 <1>         0.067749 
     28 H           2.825284    1.636762    0.539101 H         1 <1>         0.059424 
     29 H           5.130833   -0.761322    1.288499 H         1 <1>         0.027428 
     30 H           5.649710   -0.187299   -0.325744 H         1 <1>         0.027428 
     31 H           5.075066    0.974868    0.894390 H         1 <1>         0.027428 
     32 H           4.111353   -2.298985   -0.512457 H         1 <1>         0.027428 
     33 H           2.373102   -2.077895   -0.245079 H         1 <1>         0.027428 
     34 H           3.133070   -1.489189   -1.762069 H         1 <1>         0.027428 
@<TRIPOS>BOND
     1    6    1 1    
     2    1   13 1    
     3    8    2 1    
     4    2   14 1    
     5    9    3 1    
     6    3   17 1    
     7   17    4 2    
     8    6    5 1    
     9    5    8 2    
    10    5   11 1    
    11    7    6 2    
    12    7    9 1    
    13    7   12 1    
    14    8   10 1    
    15    9   10 2    
    16   10   21 1    
    17   11   14 2    
    18   11   22 1    
    19   12   15 2    
    20   12   23 1    
    21   13   16 1    
    22   13   24 1    
    23   13   25 1    
    24   14   26 1    
    25   15   17 1    
    26   15   27 1    
    27   16   18 2    
    28   16   28 1    
    29   18   19 1    
    30   18   20 1    
    31   19   29 1    
    32   19   30 1    
    33   19   31 1    
    34   20   32 1    
    35   20   33 1    
    36   20   34 1    
@<TRIPOS>SUBSTRUCTURE
     1 ****        1 TEMP              0 ****  ****    0 ROOT 
@<TRIPOS>NORMAL
@<TRIPOS>FF_PBC
FORCE_FIELD_SETUP_FEATURE Force Field Setup information
v1.0  0 0.000000 0.000000 0.000000 0.000000 0.000000 0.000000 NONE 0 0 0 0 1 0 0 0 0 0 0 0 0
