@<TRIPOS>MOLECULE
MOL000027
   37    37     1     1     0
SMALL
GASTEIGER


@<TRIPOS>ATOM
      1 C           1.893297   -0.027520    0.108071 C.ar      1 <1>        -0.044506 
      2 C           1.654951   -0.865736   -1.093647 C.ar      1 <1>        -0.058067 
      3 C           2.289077   -0.569146   -2.311907 C.ar      1 <1>        -0.058572 
      4 C           3.210478    0.588113   -2.419897 C.ar      1 <1>        -0.050429 
      5 C           3.429569    1.397195   -1.292726 C.ar      1 <1>        -0.058572 
      6 C           2.760383    1.087169   -0.007041 C.ar      1 <1>        -0.058067 
      7 C           3.921035    0.907615   -3.738058 C.3       1 <1>        -0.039709 
      8 C           1.223919   -0.348392    1.459419 C.3       1 <1>        -0.018404 
      9 C          -0.173176    0.330879    1.568924 C.3       1 <1>        -0.043013 
     10 C          -1.160777   -0.032724    0.424023 C.3       1 <1>        -0.033986 
     11 C          -2.475284    0.679327    0.664866 C.2       1 <1>        -0.085268 
     12 C          -3.690569    0.159412    0.890680 C.2       1 <1>        -0.079617 
     13 C          -4.868969    1.090875    1.116008 C.3       1 <1>        -0.044050 
     14 C          -4.035763   -1.316121    0.943218 C.3       1 <1>        -0.044050 
     15 C           1.194330   -1.867582    1.782614 C.3       1 <1>        -0.058388 
     16 H           0.985961   -1.716922   -1.050919 H         1 <1>         0.062046 
     17 H           2.099105   -1.194325   -3.179956 H         1 <1>         0.062028 
     18 H           4.094575    2.251772   -1.360503 H         1 <1>         0.062028 
     19 H           2.949084    1.727477    0.849063 H         1 <1>         0.062046 
     20 H           3.624248    0.204215   -4.531189 H         1 <1>         0.027753 
     21 H           5.008944    0.835613   -3.586569 H         1 <1>         0.027753 
     22 H           3.661345    1.930982   -4.049801 H         1 <1>         0.027753 
     23 H           1.859950    0.094150    2.248596 H         1 <1>         0.034621 
     24 H          -0.624756    0.075272    2.542277 H         1 <1>         0.027392 
     25 H          -0.023207    1.423698    1.556126 H         1 <1>         0.027392 
     26 H          -0.766093    0.341878   -0.532862 H         1 <1>         0.030758 
     27 H          -1.256970   -1.119271    0.332448 H         1 <1>         0.030758 
     28 H          -2.390463    1.767211    0.646705 H         1 <1>         0.057145 
     29 H          -5.628988    0.618584    1.765362 H         1 <1>         0.027427 
     30 H          -4.560882    2.041751    1.591042 H         1 <1>         0.027427 
     31 H          -5.329303    1.314062    0.135659 H         1 <1>         0.027427 
     32 H          -4.888284   -1.495582    0.272432 H         1 <1>         0.027427 
     33 H          -3.242238   -2.015116    0.655982 H         1 <1>         0.027427 
     34 H          -4.345590   -1.565411    1.967880 H         1 <1>         0.027427 
     35 H           2.210994   -2.272852    1.681795 H         1 <1>         0.023554 
     36 H           0.862649   -2.015772    2.821263 H         1 <1>         0.023554 
     37 H           0.527518   -2.444878    1.130824 H         1 <1>         0.023554 
@<TRIPOS>BOND
     1    1    2 1    
     2    1    6 2    
     3    1    8 1    
     4    2    3 2    
     5    2   16 1    
     6    3    4 1    
     7    3   17 1    
     8    4    5 2    
     9    4    7 1    
    10    5    6 1    
    11    5   18 1    
    12    6   19 1    
    13    7   20 1    
    14    7   21 1    
    15    7   22 1    
    16    8    9 1    
    17    8   15 1    
    18    8   23 1    
    19    9   10 1    
    20    9   24 1    
    21    9   25 1    
    22   10   11 1    
    23   10   26 1    
    24   10   27 1    
    25   11   12 2    
    26   11   28 1    
    27   12   13 1    
    28   12   14 1    
    29   13   29 1    
    30   13   30 1    
    31   13   31 1    
    32   14   32 1    
    33   14   33 1    
    34   14   34 1    
    35   15   35 1    
    36   15   36 1    
    37   15   37 1    
@<TRIPOS>SUBSTRUCTURE
     1 ****        1 TEMP              0 ****  ****    0 ROOT 
@<TRIPOS>NORMAL
@<TRIPOS>FF_PBC
FORCE_FIELD_SETUP_FEATURE Force Field Setup information
v1.0  0 0.000000 0.000000 0.000000 0.000000 0.000000 0.000000 NONE 0 0 0 0 1 0 0 0 0 0 0 0 0
