@<TRIPOS>MOLECULE
MOL004963
   81    85     1     1     0
SMALL
GASTEIGER


@<TRIPOS>ATOM
      1 C          -1.068588    1.914809   -3.280584 C.3       1 <1>        -0.044327 
      2 C           0.062507    1.940229   -2.187046 C.3       1 <1>        -0.018168 
      3 C          -0.125511    3.282471   -1.382958 C.3       1 <1>        -0.025097 
      4 C          -0.204833    4.625239   -2.222517 C.3       1 <1>         0.020283 
      5 C          -1.323626    4.459100   -3.306774 C.3       1 <1>         0.062974 
      6 C          -1.144377    3.187005   -4.171870 C.3       1 <1>        -0.025736 
      7 C          -0.161247    0.730612   -1.179956 C.3       1 <1>         0.033333 
      8 C           0.609636    0.707784    0.193951 C.3       1 <1>        -0.012656 
      9 C           0.520661    2.134386    0.834912 C.3       1 <1>        -0.045875 
     10 C           0.816975    3.313113   -0.140431 C.3       1 <1>        -0.048506 
     11 C          -0.029911   -0.661406   -1.757620 C.2       1 <1>         0.160199 
     12 C           0.115376   -1.842205   -0.890022 C.2       1 <1>        -0.018839 
     13 C           0.136643   -1.784548    0.450743 C.2       1 <1>        -0.056185 
     14 C          -0.023536   -0.424412    1.142699 C.3       1 <1>        -0.004332 
     15 C           0.265899   -3.075216    1.260537 C.3       1 <1>        -0.012608 
     16 C           1.089552   -2.920678    2.568987 C.3       1 <1>        -0.025442 
     17 C           0.511249   -1.723471    3.382806 C.3       1 <1>        -0.046277 
     18 C           0.589691   -0.384246    2.590152 C.3       1 <1>        -0.042869 
     19 C          -1.148776   -3.699484    1.484946 C.3       1 <1>        -0.031522 
     20 C          -1.176852   -5.015974    2.320480 C.3       1 <1>         0.053721 
     21 C          -0.367155   -4.816948    3.634779 C.3       1 <1>        -0.038057 
     22 C           1.056421   -4.249570    3.394137 C.3       1 <1>        -0.046118 
     23 O          -1.368976    5.611365   -4.169872 O.3       1 <1>        -0.391162 
     24 O          -0.010436   -0.856605   -2.962860 O.2       1 <1>        -0.292347 
     25 C          -2.653073   -5.336470    2.718770 C.3       1 <1>        -0.050480 
     26 C          -0.636110   -6.180489    1.502254 C.2       1 <1>         0.265560 
     27 O          -1.506415   -7.144015    1.186836 O.3       1 <1>        -0.330857 
     28 O           0.528583   -6.255347    1.141513 O.2       1 <1>        -0.264567 
     29 C           2.593143   -2.666421    2.228636 C.3       1 <1>        -0.059016 
     30 C           2.135096    0.418214   -0.056391 C.3       1 <1>        -0.058099 
     31 C          -1.588978   -0.293256    1.308310 C.3       1 <1>        -0.055302 
     32 C           1.444667    1.820556   -2.926774 C.3       1 <1>        -0.058617 
     33 C           1.144696    5.077110   -2.875263 C.3       1 <1>         0.052200 
     34 C          -0.660080    5.816406   -1.311612 C.3       1 <1>        -0.054830 
     35 O           1.084754    6.454228   -3.305270 O.3       1 <1>        -0.394374 
     36 H          -0.950520    1.059532   -3.961428 H         1 <1>         0.027160 
     37 H          -2.061597    1.818379   -2.810880 H         1 <1>         0.027160 
     38 H          -1.135372    3.208572   -0.945724 H         1 <1>         0.031302 
     39 H          -2.296110    4.373721   -2.787776 H         1 <1>         0.059936 
     40 H          -2.019939    3.092448   -4.839844 H         1 <1>         0.029039 
     41 H          -0.278524    3.305638   -4.836561 H         1 <1>         0.029039 
     42 H          -1.223932    0.813199   -0.934825 H         1 <1>         0.039170 
     43 H           1.217646    2.199377    1.682568 H         1 <1>         0.027107 
     44 H          -0.476198    2.334118    1.242883 H         1 <1>         0.027107 
     45 H           0.653897    4.231823    0.441434 H         1 <1>         0.026847 
     46 H           1.873063    3.328011   -0.427365 H         1 <1>         0.026847 
     47 H           0.206896   -2.800675   -1.401865 H         1 <1>         0.065218 
     48 H           0.815876   -3.809652    0.652283 H         1 <1>         0.035146 
     49 H           1.081350   -1.618326    4.322763 H         1 <1>         0.027096 
     50 H          -0.527613   -1.911869    3.677903 H         1 <1>         0.027096 
     51 H           0.076067    0.397130    3.173146 H         1 <1>         0.027392 
     52 H           1.643847   -0.096194    2.617868 H         1 <1>         0.027392 
     53 H          -1.617382   -3.891371    0.504440 H         1 <1>         0.028121 
     54 H          -1.782326   -2.972954    2.000909 H         1 <1>         0.028121 
     55 H          -0.283928   -5.789194    4.149337 H         1 <1>         0.027550 
     56 H          -0.902307   -4.136211    4.313960 H         1 <1>         0.027550 
     57 H           1.647900   -5.027799    2.888718 H         1 <1>         0.027098 
     58 H           1.543935   -4.085467    4.369627 H         1 <1>         0.027098 
     59 H          -2.061334    5.579912   -4.822982 H         1 <1>         0.209801 
     60 H          -3.272569   -5.506859    1.825333 H         1 <1>         0.023986 
     61 H          -3.106756   -4.511049    3.287074 H         1 <1>         0.023986 
     62 H          -2.691414   -6.238975    3.347069 H         1 <1>         0.023986 
     63 H          -1.109049   -7.845057    0.680791 H         1 <1>         0.220226 
     64 H           2.721512   -1.832118    1.534044 H         1 <1>         0.023525 
     65 H           3.059539   -3.537694    1.741595 H         1 <1>         0.023525 
     66 H           3.160723   -2.446035    3.147071 H         1 <1>         0.023525 
     67 H           2.754246    0.476966    0.841944 H         1 <1>         0.023553 
     68 H           2.591185    1.158962   -0.705599 H         1 <1>         0.023553 
     69 H           2.319695   -0.559606   -0.516955 H         1 <1>         0.023553 
     70 H          -1.960216    0.734915    1.342336 H         1 <1>         0.023829 
     71 H          -2.133495   -0.792443    0.492421 H         1 <1>         0.023829 
     72 H          -1.957616   -0.733663    2.241857 H         1 <1>         0.023829 
     73 H           1.389164    2.045612   -3.997310 H         1 <1>         0.023535 
     74 H           2.217288    2.485308   -2.526068 H         1 <1>         0.023535 
     75 H           1.837348    0.796249   -2.888087 H         1 <1>         0.023535 
     76 H           1.956525    5.005098   -2.135399 H         1 <1>         0.056334 
     77 H           1.410471    4.463866   -3.745296 H         1 <1>         0.056334 
     78 H          -0.987586    6.674408   -1.918729 H         1 <1>         0.023667 
     79 H           0.160312    6.179076   -0.675947 H         1 <1>         0.023667 
     80 H          -1.505584    5.538421   -0.664708 H         1 <1>         0.023667 
     81 H           1.888670    6.780418   -3.698406 H         1 <1>         0.209420 
@<TRIPOS>BOND
     1    1    2 1    
     2    1    6 1    
     3    1   36 1    
     4    1   37 1    
     5    2    3 1    
     6    2    7 1    
     7    2   32 1    
     8    3    4 1    
     9    3   10 1    
    10    3   38 1    
    11    4    5 1    
    12    4   33 1    
    13    4   34 1    
    14    5    6 1    
    15    5   23 1    
    16    5   39 1    
    17    6   40 1    
    18    6   41 1    
    19    7    8 1    
    20    7   11 1    
    21    7   42 1    
    22    8    9 1    
    23    8   14 1    
    24    8   30 1    
    25    9   10 1    
    26    9   43 1    
    27    9   44 1    
    28   10   45 1    
    29   10   46 1    
    30   11   12 1    
    31   11   24 2    
    32   12   13 2    
    33   12   47 1    
    34   13   14 1    
    35   13   15 1    
    36   14   18 1    
    37   14   31 1    
    38   15   16 1    
    39   15   19 1    
    40   15   48 1    
    41   16   17 1    
    42   16   22 1    
    43   16   29 1    
    44   17   18 1    
    45   17   49 1    
    46   17   50 1    
    47   18   51 1    
    48   18   52 1    
    49   19   20 1    
    50   19   53 1    
    51   19   54 1    
    52   20   21 1    
    53   20   25 1    
    54   20   26 1    
    55   21   22 1    
    56   21   55 1    
    57   21   56 1    
    58   22   57 1    
    59   22   58 1    
    60   23   59 1    
    61   25   60 1    
    62   25   61 1    
    63   25   62 1    
    64   26   27 1    
    65   26   28 2    
    66   27   63 1    
    67   29   64 1    
    68   29   65 1    
    69   29   66 1    
    70   30   67 1    
    71   30   68 1    
    72   30   69 1    
    73   31   70 1    
    74   31   71 1    
    75   31   72 1    
    76   32   73 1    
    77   32   74 1    
    78   32   75 1    
    79   33   35 1    
    80   33   76 1    
    81   33   77 1    
    82   34   78 1    
    83   34   79 1    
    84   34   80 1    
    85   35   81 1    
@<TRIPOS>SUBSTRUCTURE
     1 ****        1 TEMP              0 ****  ****    0 ROOT 
@<TRIPOS>NORMAL
@<TRIPOS>FF_PBC
FORCE_FIELD_SETUP_FEATURE Force Field Setup information
v1.0  0 0.000000 0.000000 0.000000 0.000000 0.000000 0.000000 NONE 0 0 0 0 1 0 0 0 0 0 0 0 0
