@<TRIPOS>MOLECULE
MOL002482
   28    27     1     1     0
SMALL
GASTEIGER


@<TRIPOS>ATOM
      1 C           1.210094   -1.631906   -1.335656 C.3       1 <1>        -0.025709 
      2 C          -0.129160   -0.834049   -1.259356 C.3       1 <1>        -0.043578 
      3 C           2.398967   -0.700629   -1.471820 C.2       1 <1>        -0.088263 
      4 C           1.354142   -2.616653   -0.140599 C.3       1 <1>        -0.058954 
      5 C          -0.299458   -0.015326    0.052090 C.3       1 <1>        -0.034005 
      6 C           3.675042   -1.097980   -1.382805 C.2       1 <1>        -0.102376 
      7 C          -1.536741    0.854569    0.027115 C.2       1 <1>        -0.085268 
      8 C          -1.912008    1.677774    1.020568 C.2       1 <1>        -0.079617 
      9 C          -3.163504    2.523637    0.908106 C.3       1 <1>        -0.044050 
     10 C          -1.146651    1.841995    2.317092 C.3       1 <1>        -0.044050 
     11 H           1.172280   -2.226503   -2.265063 H         1 <1>         0.034026 
     12 H          -0.178411   -0.149386   -2.122722 H         1 <1>         0.027374 
     13 H          -0.977909   -1.533569   -1.344014 H         1 <1>         0.027374 
     14 H           2.223397    0.358875   -1.666469 H         1 <1>         0.056899 
     15 H           2.132491   -3.369519   -0.334942 H         1 <1>         0.023536 
     16 H           0.409526   -3.155232    0.030671 H         1 <1>         0.023536 
     17 H           1.624664   -2.072578    0.776984 H         1 <1>         0.023536 
     18 H          -0.387912   -0.707781    0.903325 H         1 <1>         0.030758 
     19 H           0.582104    0.627342    0.199197 H         1 <1>         0.030758 
     20 H           4.486479   -0.377450   -1.491939 H         1 <1>         0.053183 
     21 H           3.956587   -2.133713   -1.207165 H         1 <1>         0.053183 
     22 H          -2.158234    0.800116   -0.866774 H         1 <1>         0.057145 
     23 H          -2.899038    3.585897    1.019392 H         1 <1>         0.027427 
     24 H          -3.683941    2.403876   -0.053759 H         1 <1>         0.027427 
     25 H          -3.864783    2.249893    1.710686 H         1 <1>         0.027427 
     26 H          -0.266579    1.192596    2.411732 H         1 <1>         0.027427 
     27 H          -0.806259    2.884482    2.404030 H         1 <1>         0.027427 
     28 H          -1.815484    1.621024    3.162595 H         1 <1>         0.027427 
@<TRIPOS>BOND
     1    1    2 1    
     2    1    3 1    
     3    1    4 1    
     4    1   11 1    
     5    2    5 1    
     6    2   12 1    
     7    2   13 1    
     8    3    6 2    
     9    3   14 1    
    10    4   15 1    
    11    4   16 1    
    12    4   17 1    
    13    5    7 1    
    14    5   18 1    
    15    5   19 1    
    16    6   20 1    
    17    6   21 1    
    18    7    8 2    
    19    7   22 1    
    20    8    9 1    
    21    8   10 1    
    22    9   23 1    
    23    9   24 1    
    24    9   25 1    
    25   10   26 1    
    26   10   27 1    
    27   10   28 1    
@<TRIPOS>SUBSTRUCTURE
     1 ****        1 TEMP              0 ****  ****    0 ROOT 
@<TRIPOS>NORMAL
@<TRIPOS>FF_PBC
FORCE_FIELD_SETUP_FEATURE Force Field Setup information
v1.0  0 0.000000 0.000000 0.000000 0.000000 0.000000 0.000000 NONE 0 0 0 0 1 0 0 0 0 0 0 0 0
