@<TRIPOS>MOLECULE
MOL005815
   53    55     1     1     0
SMALL
GASTEIGER


@<TRIPOS>ATOM
      1 C          -0.928976    1.833113   -0.639635 C.ar      1 <1>         0.082560 
      2 C          -0.925976    0.480686   -0.625527 C.ar      1 <1>         0.122480 
      3 C          -2.207637    2.586368   -0.641822 C.ar      1 <1>         0.121322 
      4 C           0.402008    2.554477   -0.641220 C.2       1 <1>         0.171084 
      5 C          -2.195833   -0.284524   -0.647426 C.ar      1 <1>         0.139124 
      6 O           0.283251   -0.221543   -0.589015 O.3       1 <1>        -0.333001 
      7 C          -3.393032    1.887985   -0.625084 C.ar      1 <1>         0.139084 
      8 O          -2.150787    3.989397   -0.650967 O.3       1 <1>        -0.344477 
      9 C           1.672320    1.751160   -0.658487 C.3       1 <1>         0.041569 
     10 O           0.473421    3.772379   -0.628345 O.2       1 <1>        -0.291781 
     11 C          -3.388531    0.400404   -0.661288 C.ar      1 <1>         0.140832 
     12 O          -2.115319   -1.688565   -0.654725 O.3       1 <1>        -0.342873 
     13 C           1.373425    0.428750    0.079405 C.3       1 <1>         0.097350 
     14 O          -4.617590    2.559338   -0.569756 O.3       1 <1>        -0.342873 
     15 C          -3.270228    4.838478   -0.951155 C.3       1 <1>         0.043165 
     16 O          -4.607073   -0.283692   -0.710060 O.3       1 <1>        -0.342828 
     17 C          -3.231952   -2.561055   -0.421298 C.3       1 <1>         0.043244 
     18 C           2.580356   -0.516818    0.067356 C.ar      1 <1>        -0.015378 
     19 C          -5.308043    2.427860    0.685364 C.3       1 <1>         0.043244 
     20 C          -5.330646   -0.142896   -1.944947 C.3       1 <1>         0.043244 
     21 C           3.331003   -0.798513    1.315322 C.ar      1 <1>        -0.023488 
     22 C           2.980975   -1.142584   -1.121914 C.ar      1 <1>        -0.053491 
     23 C           4.412659   -1.701367    1.327566 C.ar      1 <1>         0.105990 
     24 C           4.139511   -2.065563   -1.121368 C.ar      1 <1>        -0.028810 
     25 C           4.846033   -2.348380    0.055190 C.ar      1 <1>         0.105670 
     26 O           5.059842   -1.970549    2.536243 O.3       1 <1>        -0.345332 
     27 O           5.936686   -3.227605   -0.025648 O.3       1 <1>        -0.345341 
     28 C           4.278608   -2.724821    3.480667 C.3       1 <1>         0.043136 
     29 C           6.807031   -3.477609    1.088338 C.3       1 <1>         0.043135 
     30 H           2.488839    2.292820   -0.155638 H         1 <1>         0.037400 
     31 H           1.957281    1.559479   -1.703823 H         1 <1>         0.037400 
     32 H           1.079137    0.633507    1.123060 H         1 <1>         0.065573 
     33 H          -2.884077    5.863148   -1.052758 H         1 <1>         0.052871 
     34 H          -3.745493    4.549841   -1.901279 H         1 <1>         0.052871 
     35 H          -4.008902    4.839842   -0.136980 H         1 <1>         0.052871 
     36 H          -2.836040   -3.584130   -0.344969 H         1 <1>         0.052872 
     37 H          -3.738874   -2.312828    0.523678 H         1 <1>         0.052872 
     38 H          -3.944935   -2.539815   -1.257693 H         1 <1>         0.052872 
     39 H          -6.233503    3.019329    0.629914 H         1 <1>         0.052872 
     40 H          -4.689673    2.817691    1.509269 H         1 <1>         0.052872 
     41 H          -5.576583    1.382712    0.900911 H         1 <1>         0.052872 
     42 H          -4.727727   -0.509480   -2.790339 H         1 <1>         0.052872 
     43 H          -6.243969   -0.751389   -1.873567 H         1 <1>         0.052872 
     44 H          -5.622807    0.900072   -2.137049 H         1 <1>         0.052872 
     45 H           3.043117   -0.307357    2.237673 H         1 <1>         0.064766 
     46 H           2.443048   -0.957893   -2.046243 H         1 <1>         0.062192 
     47 H           4.451313   -2.533842   -2.048790 H         1 <1>         0.064420 
     48 H           4.906414   -2.923939    4.361534 H         1 <1>         0.052871 
     49 H           3.385994   -2.171619    3.808980 H         1 <1>         0.052871 
     50 H           3.965109   -3.687353    3.046775 H         1 <1>         0.052871 
     51 H           7.620271   -4.127645    0.734523 H         1 <1>         0.052871 
     52 H           7.248874   -2.542277    1.464192 H         1 <1>         0.052871 
     53 H           6.279544   -4.004741    1.895843 H         1 <1>         0.052871 
@<TRIPOS>BOND
     1    1    2 2    
     2    1    3 1    
     3    1    4 1    
     4    2    5 1    
     5    2    6 1    
     6    3    7 2    
     7    3    8 1    
     8    4    9 1    
     9    4   10 2    
    10    5   11 2    
    11    5   12 1    
    12    6   13 1    
    13    7   11 1    
    14    7   14 1    
    15    8   15 1    
    16    9   13 1    
    17    9   30 1    
    18    9   31 1    
    19   11   16 1    
    20   12   17 1    
    21   13   18 1    
    22   13   32 1    
    23   14   19 1    
    24   15   33 1    
    25   15   34 1    
    26   15   35 1    
    27   16   20 1    
    28   17   36 1    
    29   17   37 1    
    30   17   38 1    
    31   18   21 1    
    32   18   22 2    
    33   19   39 1    
    34   19   40 1    
    35   19   41 1    
    36   20   42 1    
    37   20   43 1    
    38   20   44 1    
    39   21   23 2    
    40   21   45 1    
    41   22   24 1    
    42   22   46 1    
    43   23   25 1    
    44   23   26 1    
    45   24   25 2    
    46   24   47 1    
    47   25   27 1    
    48   26   28 1    
    49   27   29 1    
    50   28   48 1    
    51   28   49 1    
    52   28   50 1    
    53   29   51 1    
    54   29   52 1    
    55   29   53 1    
@<TRIPOS>SUBSTRUCTURE
     1 ****        1 TEMP              0 ****  ****    0 ROOT 
@<TRIPOS>NORMAL
@<TRIPOS>FF_PBC
FORCE_FIELD_SETUP_FEATURE Force Field Setup information
v1.0  0 0.000000 0.000000 0.000000 0.000000 0.000000 0.000000 NONE 0 0 0 0 1 0 0 0 0 0 0 0 0
