@<TRIPOS>MOLECULE
MOL004560
   30    31     1     1     0
SMALL
GASTEIGER


@<TRIPOS>ATOM
      1 O           0.008749    3.049047    0.225478 O.3       1 <1>        -0.388295 
      2 O          -2.075199    1.103529    2.208073 O.3       1 <1>        -0.366272 
      3 O          -1.255508   -1.010388    2.208255 O.3       1 <1>        -0.322198 
      4 O           2.393681   -0.723320   -1.533980 O.3       1 <1>        -0.391077 
      5 O           0.361591   -4.067888   -0.306267 O.3       1 <1>        -0.327671 
      6 O           2.268986   -3.022640    0.004074 O.2       1 <1>        -0.259700 
      7 C          -0.058501    0.688623    0.856788 C.3       1 <1>         0.048276 
      8 C          -0.130412    1.723487   -0.315825 C.3       1 <1>         0.073726 
      9 C           0.876424   -0.460472    0.391495 C.3       1 <1>         0.027818 
     10 C           1.123426   -0.202936   -1.112270 C.3       1 <1>         0.065378 
     11 C           1.097936    1.340994   -1.181088 C.3       1 <1>         0.002884 
     12 C          -1.415262    0.143367    1.367788 C.3       1 <1>         0.167314 
     13 C           0.393335   -1.843285    0.751787 C.2       1 <1>         0.052538 
     14 C          -1.420546    1.681286   -1.191984 C.3       1 <1>        -0.035545 
     15 C          -0.584911   -2.028431    1.650884 C.2       1 <1>         0.052320 
     16 C           1.056651   -3.011059    0.128181 C.2       1 <1>         0.289477 
     17 H           0.083836    3.722743   -0.442836 H         1 <1>         0.210163 
     18 H          -2.227731    1.940535    1.784299 H         1 <1>         0.212500 
     19 H           2.585912   -0.540451   -2.448324 H         1 <1>         0.209803 
     20 H          -0.581060   -3.974069   -0.247647 H         1 <1>         0.220546 
     21 H           0.411329    1.171479    1.731789 H         1 <1>         0.038448 
     22 H           1.858348   -0.348513    0.884975 H         1 <1>         0.038161 
     23 H           0.310218   -0.654919   -1.705015 H         1 <1>         0.060018 
     24 H           1.052066    1.717351   -2.214943 H         1 <1>         0.031802 
     25 H           2.012818    1.734193   -0.707731 H         1 <1>         0.031802 
     26 H          -2.078335   -0.176096    0.547794 H         1 <1>         0.091524 
     27 H          -2.299113    1.994640   -0.611396 H         1 <1>         0.025733 
     28 H          -1.616034    0.688177   -1.619227 H         1 <1>         0.025733 
     29 H          -1.322031    2.388059   -2.030099 H         1 <1>         0.025733 
     30 H          -0.862425   -3.027008    1.989576 H         1 <1>         0.089058 
@<TRIPOS>BOND
     1    8    1 1    
     2    1   17 1    
     3   12    2 1    
     4    2   18 1    
     5    3   12 1    
     6   15    3 1    
     7   10    4 1    
     8    4   19 1    
     9   16    5 1    
    10    5   20 1    
    11   16    6 2    
    12    7    8 1    
    13    9    7 1    
    14    7   12 1    
    15    7   21 1    
    16   11    8 1    
    17    8   14 1    
    18    9   10 1    
    19   13    9 1    
    20    9   22 1    
    21   10   11 1    
    22   10   23 1    
    23   11   24 1    
    24   11   25 1    
    25   12   26 1    
    26   13   15 2    
    27   13   16 1    
    28   14   27 1    
    29   14   28 1    
    30   14   29 1    
    31   15   30 1    
@<TRIPOS>SUBSTRUCTURE
     1 ****        1 TEMP              0 ****  ****    0 ROOT 
@<TRIPOS>NORMAL
@<TRIPOS>FF_PBC
FORCE_FIELD_SETUP_FEATURE Force Field Setup information
v1.0  0 0.000000 0.000000 0.000000 0.000000 0.000000 0.000000 NONE 0 0 0 0 1 0 0 0 0 0 0 0 0
