@<TRIPOS>MOLECULE
MOL002107
   26    26     1     1     0
SMALL
GASTEIGER


@<TRIPOS>ATOM
      1 C          -0.338986   -1.749537    0.465767 C.ar      1 <1>         0.017392 
      2 C           0.585958   -0.589118    0.157977 C.2       1 <1>         0.163165 
      3 C           0.246752   -3.067790    0.817997 C.ar      1 <1>        -0.051266 
      4 C          -1.759232   -1.617859    0.428430 C.ar      1 <1>        -0.051266 
      5 C           0.059790    0.778140   -0.207288 C.3       1 <1>         0.010450 
      6 O           1.792277   -0.769733    0.208068 O.2       1 <1>        -0.292060 
      7 C          -0.583977   -4.167460    1.109748 C.ar      1 <1>        -0.061097 
      8 C          -2.627091   -2.779504    0.736640 C.ar      1 <1>        -0.061097 
      9 C           1.191626    1.806690   -0.479587 C.3       1 <1>        -0.046286 
     10 C          -2.057320   -4.019234    1.067921 C.ar      1 <1>        -0.061720 
     11 C           0.615868    3.200277   -0.851995 C.3       1 <1>        -0.055517 
     12 C           1.749969    4.223027   -1.122694 C.3       1 <1>        -0.065266 
     13 H           1.324642   -3.189810    0.852217 H         1 <1>         0.062450 
     14 H          -2.226872   -0.673573    0.176042 H         1 <1>         0.062450 
     15 H          -0.562681    0.682387   -1.110715 H         1 <1>         0.034507 
     16 H          -0.565493    1.144227    0.622061 H         1 <1>         0.034507 
     17 H          -0.146305   -5.127005    1.366151 H         1 <1>         0.061777 
     18 H          -3.706554   -2.669312    0.705572 H         1 <1>         0.061777 
     19 H           1.820339    1.900259    0.421605 H         1 <1>         0.026929 
     20 H           1.823183    1.439812   -1.305854 H         1 <1>         0.026929 
     21 H          -2.693143   -4.869550    1.293527 H         1 <1>         0.061759 
     22 H          -0.012189    3.111945   -1.754313 H         1 <1>         0.026275 
     23 H          -0.015086    3.572239   -0.027387 H         1 <1>         0.026275 
     24 H           1.321840    5.203518   -1.384765 H         1 <1>         0.022978 
     25 H           2.379933    4.343949   -0.227600 H         1 <1>         0.022978 
     26 H           2.382855    3.882917   -1.957230 H         1 <1>         0.022978 
@<TRIPOS>BOND
     1    1    2 1    
     2    1    3 1    
     3    1    4 2    
     4    2    5 1    
     5    2    6 2    
     6    3    7 2    
     7    3   13 1    
     8    4    8 1    
     9    4   14 1    
    10    5    9 1    
    11    5   15 1    
    12    5   16 1    
    13    7   10 1    
    14    7   17 1    
    15    8   10 2    
    16    8   18 1    
    17    9   11 1    
    18    9   19 1    
    19    9   20 1    
    20   10   21 1    
    21   11   12 1    
    22   11   22 1    
    23   11   23 1    
    24   12   24 1    
    25   12   25 1    
    26   12   26 1    
@<TRIPOS>SUBSTRUCTURE
     1 ****        1 TEMP              0 ****  ****    0 ROOT 
@<TRIPOS>NORMAL
@<TRIPOS>FF_PBC
FORCE_FIELD_SETUP_FEATURE Force Field Setup information
v1.0  0 0.000000 0.000000 0.000000 0.000000 0.000000 0.000000 NONE 0 0 0 0 1 0 0 0 0 0 0 0 0
