@<TRIPOS>MOLECULE
MOL002133
   26    26     1     1     0
SMALL
GASTEIGER


@<TRIPOS>ATOM
      1 C           1.166068    0.839236   -0.519882 C.2       1 <1>        -0.051224 
      2 C           0.319187    1.876933   -0.602006 C.2       1 <1>        -0.080805 
      3 C          -1.172263    1.762071   -0.424820 C.3       1 <1>        -0.033431 
      4 C          -1.652244    0.290750   -0.463277 C.3       1 <1>        -0.040422 
      5 C          -0.736052   -0.655818    0.365216 C.3       1 <1>        -0.009885 
      6 C           0.657412   -0.530393   -0.237238 C.2       1 <1>        -0.046172 
      7 C           1.416480   -1.602880   -0.515301 C.2       1 <1>        -0.094741 
      8 C          -1.362510   -2.083870    0.303714 C.3       1 <1>        -0.055791 
      9 C          -0.656560   -0.221749    1.857441 C.3       1 <1>        -0.055791 
     10 C           2.649997    1.087693   -0.700406 C.3       1 <1>        -0.039748 
     11 H           0.695021    2.881673   -0.801530 H         1 <1>         0.057472 
     12 H          -1.442872    2.231233    0.534290 H         1 <1>         0.030776 
     13 H          -1.680643    2.325863   -1.224737 H         1 <1>         0.030776 
     14 H          -2.694883    0.249713   -0.107117 H         1 <1>         0.027652 
     15 H          -1.638848   -0.052458   -1.511692 H         1 <1>         0.027652 
     16 H           2.404500   -1.523266   -0.963084 H         1 <1>         0.053774 
     17 H           1.116331   -2.629757   -0.326802 H         1 <1>         0.053774 
     18 H          -1.360892   -2.463657   -0.729698 H         1 <1>         0.023812 
     19 H          -0.821378   -2.794865    0.945948 H         1 <1>         0.023812 
     20 H          -2.405059   -2.061898    0.656630 H         1 <1>         0.023812 
     21 H          -0.055381   -0.947108    2.426811 H         1 <1>         0.023812 
     22 H          -0.181893    0.762939    1.976840 H         1 <1>         0.023812 
     23 H          -1.663811   -0.179315    2.299252 H         1 <1>         0.023812 
     24 H           2.923826    2.145659   -0.569190 H         1 <1>         0.027752 
     25 H           3.223189    0.513389    0.042850 H         1 <1>         0.027752 
     26 H           2.952976    0.779587   -1.712209 H         1 <1>         0.027752 
@<TRIPOS>BOND
     1    1    2 2    
     2    1    6 1    
     3    1   10 1    
     4    2    3 1    
     5    2   11 1    
     6    3    4 1    
     7    3   12 1    
     8    3   13 1    
     9    4    5 1    
    10    4   14 1    
    11    4   15 1    
    12    5    6 1    
    13    5    8 1    
    14    5    9 1    
    15    6    7 2    
    16    7   16 1    
    17    7   17 1    
    18    8   18 1    
    19    8   19 1    
    20    8   20 1    
    21    9   21 1    
    22    9   22 1    
    23    9   23 1    
    24   10   24 1    
    25   10   25 1    
    26   10   26 1    
@<TRIPOS>SUBSTRUCTURE
     1 ****        1 TEMP              0 ****  ****    0 ROOT 
@<TRIPOS>NORMAL
@<TRIPOS>FF_PBC
FORCE_FIELD_SETUP_FEATURE Force Field Setup information
v1.0  0 0.000000 0.000000 0.000000 0.000000 0.000000 0.000000 NONE 0 0 0 0 1 0 0 0 0 0 0 0 0
