@<TRIPOS>MOLECULE
MOL003529
   20    20     1     1     0
SMALL
GASTEIGER


@<TRIPOS>ATOM
      1 C           0.192858    0.737846   -0.196469 C.ar      1 <1>         0.017359 
      2 C           0.795887   -0.575168    0.154068 C.ar      1 <1>        -0.048356 
      3 C          -1.224980    0.836700   -0.224190 C.ar      1 <1>        -0.051259 
      4 C           1.133721    1.889894   -0.502543 C.2       1 <1>         0.160121 
      5 C          -0.007660   -1.696378    0.451912 C.ar      1 <1>        -0.049785 
      6 C          -2.069674   -0.340594    0.088296 C.ar      1 <1>        -0.060849 
      7 C           0.726630    3.294200   -0.878426 C.3       1 <1>        -0.001410 
      8 O           2.335016    1.680193   -0.444052 O.2       1 <1>        -0.292356 
      9 C          -1.482979   -1.566522    0.415493 C.ar      1 <1>        -0.058800 
     10 C           0.608879   -3.051593    0.813885 C.3       1 <1>        -0.039689 
     11 H           1.875446   -0.674788    0.181881 H         1 <1>         0.062712 
     12 H          -1.728339    1.761089   -0.470694 H         1 <1>         0.062450 
     13 H          -3.151055   -0.248662    0.062456 H         1 <1>         0.061785 
     14 H          -0.353455    3.467358   -0.932513 H         1 <1>         0.030932 
     15 H           1.146296    3.990440   -0.136947 H         1 <1>         0.030932 
     16 H           1.158568    3.532239   -1.862017 H         1 <1>         0.030932 
     17 H          -2.107074   -2.424776    0.643263 H         1 <1>         0.062020 
     18 H           1.708716   -3.021271    0.807285 H         1 <1>         0.027754 
     19 H           0.269610   -3.344148    1.818748 H         1 <1>         0.027754 
     20 H           0.271921   -3.805670    0.087069 H         1 <1>         0.027754 
@<TRIPOS>BOND
     1    1    2 1    
     2    1    3 2    
     3    1    4 1    
     4    2    5 2    
     5    2   11 1    
     6    3    6 1    
     7    3   12 1    
     8    4    7 1    
     9    4    8 2    
    10    5    9 1    
    11    5   10 1    
    12    6    9 2    
    13    6   13 1    
    14    7   14 1    
    15    7   15 1    
    16    7   16 1    
    17    9   17 1    
    18   10   18 1    
    19   10   19 1    
    20   10   20 1    
@<TRIPOS>SUBSTRUCTURE
     1 ****        1 TEMP              0 ****  ****    0 ROOT 
@<TRIPOS>NORMAL
@<TRIPOS>FF_PBC
FORCE_FIELD_SETUP_FEATURE Force Field Setup information
v1.0  0 0.000000 0.000000 0.000000 0.000000 0.000000 0.000000 NONE 0 0 0 0 1 0 0 0 0 0 0 0 0
