@<TRIPOS>MOLECULE
MOL013381
   48    49     1     1     0
SMALL
GASTEIGER


@<TRIPOS>ATOM
      1 O           3.965629   -1.611717    1.624650 O.3       1 <1>        -0.386570 
      2 O           3.039116   -0.890867   -1.934452 O.3       1 <1>        -0.388962 
      3 O          -1.480713    1.158509   -0.881846 O.3       1 <1>        -0.340603 
      4 O          -5.470562   -1.675645   -0.890284 O.3       1 <1>        -0.273710 
      5 O          -7.239301   -2.995234   -0.871064 O.2       1 <1>        -0.259480 
      6 C           3.776296   -1.922128    0.230619 C.3       1 <1>         0.086243 
      7 C           3.157932   -0.688440   -0.512361 C.3       1 <1>         0.083623 
      8 C           3.989534    0.610799   -0.305449 C.3       1 <1>        -0.020495 
      9 C           3.257002    1.865683   -0.857580 C.3       1 <1>        -0.029506 
     10 C           5.176929   -2.293304   -0.330536 C.3       1 <1>        -0.033903 
     11 C           2.851300   -3.171329    0.138740 C.3       1 <1>        -0.033903 
     12 C           1.932462    2.079934   -0.149228 C.2       1 <1>        -0.074292 
     13 C           0.765801    1.935030   -0.798821 C.2       1 <1>        -0.059204 
     14 C           2.016313    2.445975    1.318116 C.3       1 <1>        -0.043715 
     15 C          -0.603634    2.053568   -0.176266 C.3       1 <1>         0.072647 
     16 C          -2.786259    0.927068   -0.429891 C.ar      1 <1>         0.079080 
     17 C          -5.475218    0.348415    0.471397 C.ar      1 <1>         0.005924 
     18 C          -4.835321   -0.519851   -0.424817 C.ar      1 <1>         0.096010 
     19 C          -3.460786   -0.210877   -0.882543 C.ar      1 <1>        -0.000436 
     20 C          -3.471397    1.849499    0.513347 C.ar      1 <1>        -0.030947 
     21 C          -4.781386    1.566878    0.949254 C.ar      1 <1>        -0.049671 
     22 C          -6.872380    0.017435    0.938877 C.2       1 <1>        -0.046443 
     23 C          -7.432535   -1.101196    0.471944 C.2       1 <1>         0.010952 
     24 C          -6.705581   -1.975486   -0.467426 C.2       1 <1>         0.291579 
     25 H           2.155534   -0.512185   -0.085717 H         1 <1>         0.062171 
     26 H           4.950333    0.522874   -0.836196 H         1 <1>         0.029400 
     27 H           4.206401    0.760557    0.763508 H         1 <1>         0.029400 
     28 H           3.125305    1.738756   -1.943937 H         1 <1>         0.031072 
     29 H           3.885499    2.758918   -0.714522 H         1 <1>         0.031072 
     30 H           5.910190   -1.499404   -0.130916 H         1 <1>         0.025796 
     31 H           5.546450   -3.208284    0.156660 H         1 <1>         0.025796 
     32 H           5.128141   -2.469944   -1.415583 H         1 <1>         0.025796 
     33 H           1.829143   -2.928657    0.465721 H         1 <1>         0.025796 
     34 H           3.238837   -3.965893    0.794374 H         1 <1>         0.025796 
     35 H           2.808849   -3.568956   -0.885594 H         1 <1>         0.025796 
     36 H           3.157685   -1.394725    2.077934 H         1 <1>         0.210247 
     37 H           2.446715   -1.594278   -2.176652 H         1 <1>         0.209900 
     38 H           0.767015    1.703236   -1.864915 H         1 <1>         0.059433 
     39 H           2.936242    3.009979    1.531608 H         1 <1>         0.027437 
     40 H           2.025110    1.525073    1.920324 H         1 <1>         0.027437 
     41 H           1.176798    3.079080    1.640619 H         1 <1>         0.027437 
     42 H          -0.590650    1.752511    0.882426 H         1 <1>         0.060922 
     43 H          -0.943442    3.096421   -0.274433 H         1 <1>         0.060922 
     44 H          -2.966824   -0.881032   -1.576607 H         1 <1>         0.066953 
     45 H          -2.984749    2.745760    0.877141 H         1 <1>         0.064348 
     46 H          -5.283470    2.241370    1.635398 H         1 <1>         0.062503 
     47 H          -7.397857    0.673333    1.634676 H         1 <1>         0.062605 
     48 H          -8.438497   -1.385428    0.779996 H         1 <1>         0.067748 
@<TRIPOS>BOND
     1    6    1 1    
     2    1   36 1    
     3    7    2 1    
     4    2   37 1    
     5    3   15 1    
     6   16    3 1    
     7   18    4 1    
     8    4   24 1    
     9   24    5 2    
    10    7    6 1    
    11    6   10 1    
    12    6   11 1    
    13    8    7 1    
    14    7   25 1    
    15    9    8 1    
    16    8   26 1    
    17    8   27 1    
    18   12    9 1    
    19    9   28 1    
    20    9   29 1    
    21   10   30 1    
    22   10   31 1    
    23   10   32 1    
    24   11   33 1    
    25   11   34 1    
    26   11   35 1    
    27   13   12 2    
    28   12   14 1    
    29   15   13 1    
    30   13   38 1    
    31   14   39 1    
    32   14   40 1    
    33   14   41 1    
    34   15   42 1    
    35   15   43 1    
    36   19   16 2    
    37   16   20 1    
    38   18   17 2    
    39   17   21 1    
    40   17   22 1    
    41   18   19 1    
    42   19   44 1    
    43   20   21 2    
    44   20   45 1    
    45   21   46 1    
    46   22   23 2    
    47   22   47 1    
    48   23   24 1    
    49   23   48 1    
@<TRIPOS>SUBSTRUCTURE
     1 ****        4 TEMP              0 ****  ****    0 ROOT 
@<TRIPOS>NORMAL
@<TRIPOS>FF_PBC
FORCE_FIELD_SETUP_FEATURE Force Field Setup information
v1.0  0 0.000000 0.000000 0.000000 0.000000 0.000000 0.000000 NONE 0 0 0 0 1 0 0 0 0 0 0 0 0
