@<TRIPOS>MOLECULE
MOL003575
   39    41     1     1     0
SMALL
GASTEIGER


@<TRIPOS>ATOM
      1 C          -0.176023   -0.253523   -0.261430 C.3       1 <1>         0.000659 
      2 C           0.682384    0.189161    0.967169 C.3       1 <1>        -0.025986 
      3 C          -1.168867    0.932860   -0.498657 C.3       1 <1>        -0.022173 
      4 C           1.990336   -0.081157    0.169971 C.3       1 <1>        -0.030426 
      5 C           1.139366   -0.288951   -1.106617 C.3       1 <1>        -0.037445 
      6 C           0.332718    1.678068    1.253705 C.3       1 <1>        -0.048390 
      7 C          -0.371124    2.179397   -0.025331 C.3       1 <1>        -0.046511 
      8 C          -0.940182   -1.559942   -0.077045 C.2       1 <1>        -0.069558 
      9 C          -2.477505    0.756881    0.362203 C.3       1 <1>        -0.043367 
     10 C          -1.573680    1.077904   -1.997302 C.3       1 <1>        -0.058744 
     11 C           3.045727    1.058066    0.060417 C.3       1 <1>        -0.059505 
     12 C           2.688693   -1.383786    0.659943 C.3       1 <1>        -0.059505 
     13 C          -2.418066   -0.342054    1.460388 C.3       1 <1>        -0.033979 
     14 C          -1.969858   -1.601564    0.776970 C.2       1 <1>        -0.084452 
     15 C          -0.552530   -2.780742   -0.886517 C.3       1 <1>        -0.043233 
     16 H           0.596405   -0.445551    1.864203 H         1 <1>         0.031454 
     17 H           1.393638   -1.217287   -1.633366 H         1 <1>         0.027917 
     18 H           1.262778    0.547879   -1.805033 H         1 <1>         0.027917 
     19 H           1.196523    2.292862    1.545552 H         1 <1>         0.026855 
     20 H          -0.385513    1.741013    2.084557 H         1 <1>         0.026855 
     21 H          -1.000877    3.065011    0.156497 H         1 <1>         0.027088 
     22 H           0.375342    2.473957   -0.775322 H         1 <1>         0.027088 
     23 H          -3.304568    0.443665   -0.297411 H         1 <1>         0.027372 
     24 H          -2.796919    1.704590    0.823220 H         1 <1>         0.027372 
     25 H          -2.020422    0.137646   -2.355903 H         1 <1>         0.023534 
     26 H          -2.314049    1.885900   -2.103764 H         1 <1>         0.023534 
     27 H          -0.728830    1.320530   -2.655292 H         1 <1>         0.023534 
     28 H           2.643800    1.989031   -0.359853 H         1 <1>         0.023508 
     29 H           3.465598    1.275598    1.054088 H         1 <1>         0.023508 
     30 H           3.864376    0.729611   -0.597658 H         1 <1>         0.023508 
     31 H           3.207910   -1.188530    1.610610 H         1 <1>         0.023508 
     32 H           1.976243   -2.200531    0.833292 H         1 <1>         0.023508 
     33 H           3.430093   -1.719345   -0.081027 H         1 <1>         0.023508 
     34 H          -3.429002   -0.486433    1.878362 H         1 <1>         0.030758 
     35 H          -1.755500   -0.107273    2.302275 H         1 <1>         0.030758 
     36 H          -2.513832   -2.526629    0.972715 H         1 <1>         0.057172 
     37 H          -1.256662   -3.611965   -0.731442 H         1 <1>         0.027454 
     38 H           0.445602   -3.154846   -0.628646 H         1 <1>         0.027454 
     39 H          -0.583923   -2.529223   -1.957122 H         1 <1>         0.027454 
@<TRIPOS>BOND
     1    1    2 1    
     2    1    3 1    
     3    1    5 1    
     4    1    8 1    
     5    2    4 1    
     6    2    6 1    
     7    2   16 1    
     8    3    7 1    
     9    3    9 1    
    10    3   10 1    
    11    4    5 1    
    12    4   11 1    
    13    4   12 1    
    14    5   17 1    
    15    5   18 1    
    16    6    7 1    
    17    6   19 1    
    18    6   20 1    
    19    7   21 1    
    20    7   22 1    
    21    8   14 2    
    22    8   15 1    
    23    9   13 1    
    24    9   23 1    
    25    9   24 1    
    26   10   25 1    
    27   10   26 1    
    28   10   27 1    
    29   11   28 1    
    30   11   29 1    
    31   11   30 1    
    32   12   31 1    
    33   12   32 1    
    34   12   33 1    
    35   13   14 1    
    36   13   34 1    
    37   13   35 1    
    38   14   36 1    
    39   15   37 1    
    40   15   38 1    
    41   15   39 1    
@<TRIPOS>SUBSTRUCTURE
     1 ****        1 TEMP              0 ****  ****    0 ROOT 
@<TRIPOS>NORMAL
@<TRIPOS>FF_PBC
FORCE_FIELD_SETUP_FEATURE Force Field Setup information
v1.0  0 0.000000 0.000000 0.000000 0.000000 0.000000 0.000000 NONE 0 0 0 0 1 0 0 0 0 0 0 0 0
