@<TRIPOS>MOLECULE
MOL002912
   52    55     1     1     0
SMALL
GASTEIGER


@<TRIPOS>ATOM
      1 O          -2.371143    3.609104    0.313855 O.3       1 <1>        -0.332332 
      2 O          -1.175834    1.687664    0.087048 O.3       1 <1>        -0.309804 
      3 O           0.339389    5.250167    1.740004 O.3       1 <1>        -0.386388 
      4 O          -1.705560    2.404219    2.852749 O.3       1 <1>        -0.384091 
      5 O          -3.155812    4.701978    2.991811 O.3       1 <1>        -0.386033 
      6 O           0.094375   -2.916612   -0.705374 O.3       1 <1>        -0.335583 
      7 O          -1.691500    5.526838   -1.584668 O.3       1 <1>        -0.329249 
      8 O          -1.083162    6.862589    0.074897 O.2       1 <1>        -0.262180 
      9 O           1.617643    2.423550    0.297533 O.3       1 <1>        -0.355372 
     10 O           3.607936    0.431966    0.036423 O.3       1 <1>        -0.356602 
     11 O           4.095711   -2.110124   -0.471068 O.2       1 <1>        -0.291782 
     12 C          -0.721552    4.608038    2.474764 C.3       1 <1>         0.114509 
     13 C          -0.736236    3.117964    2.059440 C.3       1 <1>         0.134537 
     14 C          -2.104814    5.250783    2.168919 C.3       1 <1>         0.119030 
     15 C          -1.062079    3.048261    0.540252 C.3       1 <1>         0.194267 
     16 C          -2.469509    5.004911    0.679789 C.3       1 <1>         0.174389 
     17 C          -1.695310    5.871710   -0.291725 C.2       1 <1>         0.291467 
     18 C          -0.125330    0.760286   -0.025710 C.ar      1 <1>         0.114097 
     19 C           1.050823   -3.674726   -1.469856 C.3       1 <1>         0.097160 
     20 C           2.395565   -3.750340   -0.707331 C.3       1 <1>         0.041565 
     21 C           0.464389   -1.595290   -0.435626 C.ar      1 <1>         0.092539 
     22 C           1.896460   -1.232354   -0.325092 C.ar      1 <1>         0.079762 
     23 C          -0.480522   -0.657085   -0.280521 C.ar      1 <1>         0.001883 
     24 C           2.898989   -2.349599   -0.499389 C.2       1 <1>         0.170991 
     25 C           1.219488    1.103814    0.069765 C.ar      1 <1>         0.133660 
     26 C           2.262498    0.054175   -0.079880 C.ar      1 <1>         0.117892 
     27 C           0.522956   -5.093702   -1.716330 C.ar      1 <1>        -0.017977 
     28 C           0.615521   -5.702177   -3.067176 C.ar      1 <1>        -0.056091 
     29 C          -0.049284   -5.832668   -0.665856 C.ar      1 <1>        -0.056091 
     30 C           0.143297   -7.005349   -3.291184 C.ar      1 <1>        -0.061420 
     31 C          -0.544271   -7.210268   -0.901340 C.ar      1 <1>        -0.061420 
     32 C          -0.450253   -7.781671   -2.177728 C.ar      1 <1>        -0.061740 
     33 H          -0.511024    4.672829    3.556684 H         1 <1>         0.064771 
     34 H           0.256774    2.688976    2.267881 H         1 <1>         0.067108 
     35 H          -2.062173    6.337024    2.361502 H         1 <1>         0.065129 
     36 H          -0.341420    3.596246   -0.086995 H         1 <1>         0.094174 
     37 H          -3.524415    5.290197    0.551912 H         1 <1>         0.072940 
     38 H           0.425996    6.182010    1.920548 H         1 <1>         0.210005 
     39 H          -1.804168    1.501906    2.563641 H         1 <1>         0.210111 
     40 H           1.194611   -3.172535   -2.442271 H         1 <1>         0.065571 
     41 H          -3.003195    4.794814    3.927261 H         1 <1>         0.210020 
     42 H           3.124123   -4.340763   -1.287267 H         1 <1>         0.037400 
     43 H           2.248890   -4.226605    0.274435 H         1 <1>         0.037400 
     44 H          -1.525590   -0.937635   -0.351107 H         1 <1>         0.067025 
     45 H          -2.183767    4.732220   -1.765342 H         1 <1>         0.220293 
     46 H           1.047610   -5.143055   -3.889992 H         1 <1>         0.062111 
     47 H          -0.130701   -5.397911    0.325017 H         1 <1>         0.062111 
     48 H           2.564889    2.504899    0.361387 H         1 <1>         0.217502 
     49 H           4.239539   -0.271709   -0.089072 H         1 <1>         0.217446 
     50 H           0.212443   -7.446325   -4.280546 H         1 <1>         0.061767 
     51 H          -0.977735   -7.776580   -0.083857 H         1 <1>         0.061767 
     52 H          -0.810236   -8.790036   -2.353018 H         1 <1>         0.061758 
@<TRIPOS>BOND
     1   15    1 1    
     2    1   16 1    
     3    2   15 1    
     4   18    2 1    
     5   12    3 1    
     6    3   38 1    
     7   13    4 1    
     8    4   39 1    
     9   14    5 1    
    10    5   41 1    
    11    6   19 1    
    12   21    6 1    
    13   17    7 1    
    14    7   45 1    
    15   17    8 2    
    16   25    9 1    
    17    9   48 1    
    18   26   10 1    
    19   10   49 1    
    20   24   11 2    
    21   13   12 1    
    22   12   14 1    
    23   12   33 1    
    24   15   13 1    
    25   13   34 1    
    26   16   14 1    
    27   14   35 1    
    28   15   36 1    
    29   16   17 1    
    30   16   37 1    
    31   23   18 1    
    32   18   25 2    
    33   20   19 1    
    34   19   27 1    
    35   19   40 1    
    36   24   20 1    
    37   20   42 1    
    38   20   43 1    
    39   22   21 1    
    40   21   23 2    
    41   22   24 1    
    42   22   26 2    
    43   23   44 1    
    44   25   26 1    
    45   27   28 1    
    46   27   29 2    
    47   28   30 2    
    48   28   46 1    
    49   29   31 1    
    50   29   47 1    
    51   30   32 1    
    52   30   50 1    
    53   31   32 2    
    54   31   51 1    
    55   32   52 1    
@<TRIPOS>SUBSTRUCTURE
     1 ****        6 TEMP              0 ****  ****    0 ROOT 
@<TRIPOS>NORMAL
@<TRIPOS>FF_PBC
FORCE_FIELD_SETUP_FEATURE Force Field Setup information
v1.0  0 0.000000 0.000000 0.000000 0.000000 0.000000 0.000000 NONE 0 0 0 0 1 0 0 0 0 0 0 0 0
