@<TRIPOS>MOLECULE
MOL001986
   74    77     1     1     0
SMALL
GASTEIGER


@<TRIPOS>ATOM
      1 C          -4.157842   -0.931356    0.149386 C.3       1 <1>        -0.025766 
      2 C          -5.058591   -1.757435    1.093551 C.3       1 <1>         0.058951 
      3 C          -4.166125   -2.447244    2.165376 C.3       1 <1>        -0.005079 
      4 C          -2.797469   -1.807326    2.337468 C.2       1 <1>        -0.064841 
      5 C          -2.728468   -0.287115    2.236815 C.3       1 <1>        -0.007820 
      6 C          -3.482374    0.213840    0.948708 C.3       1 <1>        -0.041314 
      7 O          -6.031016   -0.868288    1.674465 O.3       1 <1>        -0.391474 
      8 C          -1.224166    0.152149    2.157084 C.3       1 <1>        -0.028564 
      9 C          -0.314281   -0.583891    3.181167 C.3       1 <1>        -0.030897 
     10 C          -0.316695   -2.089262    2.801687 C.3       1 <1>        -0.031110 
     11 C          -1.725295   -2.583359    2.572362 C.2       1 <1>        -0.083874 
     12 C          -3.438030    0.276766    3.509713 C.3       1 <1>        -0.055578 
     13 H          -0.893423   -0.159997    1.154829 H         1 <1>         0.031194 
     14 C          -0.975299    1.679141    2.264343 C.3       1 <1>        -0.048887 
     15 C           1.069068    0.140161    3.401331 C.3       1 <1>        -0.034557 
     16 C           1.538298    1.038689    2.225769 C.3       1 <1>        -0.035095 
     17 C           0.434421    2.007081    1.699767 C.3       1 <1>        -0.049413 
     18 C           2.145652    0.018175    1.222008 C.3       1 <1>        -0.037937 
     19 C           2.907700   -0.968941    2.159391 C.3       1 <1>        -0.049682 
     20 C           2.306817   -0.780770    3.583813 C.3       1 <1>        -0.049421 
     21 C           3.029201    0.642528    0.090788 C.3       1 <1>        -0.049941 
     22 C           2.383665    0.528175   -1.321437 C.3       1 <1>        -0.052540 
     23 C           3.263237    1.198566   -2.413333 C.3       1 <1>        -0.049975 
     24 C           2.765845    1.009808   -3.887785 C.3       1 <1>        -0.038953 
     25 C           1.352761    1.654811   -4.133612 C.3       1 <1>        -0.043894 
     26 C           1.266324    2.418110   -5.488998 C.3       1 <1>        -0.062414 
     27 C           0.147236    0.676382   -4.003811 C.3       1 <1>        -0.062414 
     28 C           2.939475   -0.472901   -4.357543 C.3       1 <1>        -0.052829 
     29 C           2.912421   -0.682574   -5.897185 C.3       1 <1>        -0.065017 
     30 H          -4.769813   -0.508555   -0.665525 H         1 <1>         0.029039 
     31 H          -3.392691   -1.586185   -0.301142 H         1 <1>         0.029039 
     32 H          -5.602592   -2.511958    0.493470 H         1 <1>         0.059621 
     33 H          -4.043689   -3.500309    1.862954 H         1 <1>         0.033510 
     34 H          -4.677579   -2.453691    3.139702 H         1 <1>         0.033510 
     35 H          -4.257246    0.950807    1.215058 H         1 <1>         0.027446 
     36 H          -2.819321    0.723231    0.231088 H         1 <1>         0.027446 
     37 H          -6.654416   -1.309708    2.243041 H         1 <1>         0.209789 
     38 H          -0.805933   -0.560135    4.166401 H         1 <1>         0.030941 
     39 H           0.099585   -2.693193    3.622803 H         1 <1>         0.031025 
     40 H           0.264099   -2.293700    1.892585 H         1 <1>         0.031025 
     41 H          -1.845222   -3.667822    2.612095 H         1 <1>         0.057190 
     42 H          -3.017423   -0.125309    4.440813 H         1 <1>         0.023820 
     43 H          -4.505721    0.017388    3.508141 H         1 <1>         0.023820 
     44 H          -3.374847    1.373422    3.546576 H         1 <1>         0.023820 
     45 H          -1.725452    2.260731    1.705826 H         1 <1>         0.026837 
     46 H          -1.034708    1.988348    3.320398 H         1 <1>         0.026837 
     47 H           0.968473    0.797299    4.286681 H         1 <1>         0.030637 
     48 H           2.385754    1.653430    2.583339 H         1 <1>         0.030619 
     49 H           0.669114    3.050371    1.973208 H         1 <1>         0.026820 
     50 H           0.401437    1.963256    0.602592 H         1 <1>         0.026820 
     51 H           1.328552   -0.539472    0.746401 H         1 <1>         0.030353 
     52 H           2.800673   -2.007857    1.806147 H         1 <1>         0.026811 
     53 H           3.986356   -0.741773    2.197893 H         1 <1>         0.026811 
     54 H           3.043020   -0.233959    4.200910 H         1 <1>         0.026820 
     55 H           2.109295   -1.724894    4.109993 H         1 <1>         0.026820 
     56 H           3.998236    0.122500    0.033854 H         1 <1>         0.026802 
     57 H           3.236334    1.701602    0.310717 H         1 <1>         0.026802 
     58 H           1.400509    1.016310   -1.301739 H         1 <1>         0.026546 
     59 H           2.244136   -0.538521   -1.555393 H         1 <1>         0.026546 
     60 H           4.288415    0.801953   -2.327549 H         1 <1>         0.026802 
     61 H           3.323649    2.276633   -2.186341 H         1 <1>         0.026802 
     62 H           3.496863    1.591357   -4.476545 H         1 <1>         0.030318 
     63 H           1.205707    2.437299   -3.367997 H         1 <1>         0.029814 
     64 H           0.281531    2.899901   -5.595044 H         1 <1>         0.023242 
     65 H           2.032378    3.207974   -5.540575 H         1 <1>         0.023242 
     66 H           1.408209    1.746476   -6.344996 H         1 <1>         0.023242 
     67 H          -0.797395    1.242760   -4.013269 H         1 <1>         0.023242 
     68 H           0.175774    0.095484   -3.072741 H         1 <1>         0.023242 
     69 H           0.115800   -0.029379   -4.844281 H         1 <1>         0.023242 
     70 H           3.930051   -0.826655   -4.025213 H         1 <1>         0.026538 
     71 H           2.191493   -1.132423   -3.892824 H         1 <1>         0.026538 
     72 H           3.225911   -1.711606   -6.137105 H         1 <1>         0.022986 
     73 H           1.907423   -0.544323   -6.315867 H         1 <1>         0.022986 
     74 H           3.605447    0.011729   -6.397093 H         1 <1>         0.022986 
@<TRIPOS>BOND
     1    1    2 1    
     2    1    6 1    
     3    1   30 1    
     4    1   31 1    
     5    2    3 1    
     6    2    7 1    
     7    2   32 1    
     8    3    4 1    
     9    3   33 1    
    10    3   34 1    
    11    4    5 1    
    12    4   11 2    
    13    5    6 1    
    14    5    8 1    
    15    5   12 1    
    16    6   35 1    
    17    6   36 1    
    18    7   37 1    
    19    8    9 1    
    20    8   13 1    
    21    8   14 1    
    22    9   10 1    
    23    9   15 1    
    24    9   38 1    
    25   10   11 1    
    26   10   39 1    
    27   10   40 1    
    28   11   41 1    
    29   12   42 1    
    30   12   43 1    
    31   12   44 1    
    32   14   17 1    
    33   14   45 1    
    34   14   46 1    
    35   15   16 1    
    36   15   20 1    
    37   15   47 1    
    38   16   17 1    
    39   16   18 1    
    40   16   48 1    
    41   17   49 1    
    42   17   50 1    
    43   18   19 1    
    44   18   21 1    
    45   18   51 1    
    46   19   20 1    
    47   19   52 1    
    48   19   53 1    
    49   20   54 1    
    50   20   55 1    
    51   21   22 1    
    52   21   56 1    
    53   21   57 1    
    54   22   23 1    
    55   22   58 1    
    56   22   59 1    
    57   23   24 1    
    58   23   60 1    
    59   23   61 1    
    60   24   25 1    
    61   24   28 1    
    62   24   62 1    
    63   25   26 1    
    64   25   27 1    
    65   25   63 1    
    66   26   64 1    
    67   26   65 1    
    68   26   66 1    
    69   27   67 1    
    70   27   68 1    
    71   27   69 1    
    72   28   29 1    
    73   28   70 1    
    74   28   71 1    
    75   29   72 1    
    76   29   73 1    
    77   29   74 1    
@<TRIPOS>SUBSTRUCTURE
     1 ****        1 TEMP              0 ****  ****    0 ROOT 
@<TRIPOS>NORMAL
@<TRIPOS>FF_PBC
FORCE_FIELD_SETUP_FEATURE Force Field Setup information
v1.0  0 0.000000 0.000000 0.000000 0.000000 0.000000 0.000000 NONE 0 0 0 0 1 0 0 0 0 0 0 0 0
