@<TRIPOS>MOLECULE
MOL002120
   39    41     1     1     0
SMALL
GASTEIGER


@<TRIPOS>ATOM
      1 C          -1.157247    1.011759   -0.442750 C.3       1 <1>        -0.034775 
      2 C          -0.923720   -0.294132    0.383976 C.3       1 <1>        -0.024485 
      3 C           0.516055   -0.852054    0.311062 C.3       1 <1>        -0.015974 
      4 C           1.502096   -0.545535   -0.868566 C.3       1 <1>        -0.037370 
      5 C           1.146020    0.802437   -1.560043 C.3       1 <1>        -0.049661 
      6 C          -0.375578    0.983140   -1.793861 C.3       1 <1>        -0.049429 
      7 C          -0.681771   -1.662175   -0.285948 C.3       1 <1>        -0.010358 
      8 C          -0.534276   -2.992302    0.404883 C.2       1 <1>        -0.072676 
      9 C           0.734587   -3.129442    1.189561 C.3       1 <1>        -0.031168 
     10 C           0.979902   -1.657870    1.559589 C.3       1 <1>        -0.042603 
     11 C          -1.444356   -3.966478    0.296072 C.2       1 <1>        -0.099157 
     12 C          -0.842224    2.284211    0.429055 C.3       1 <1>        -0.043598 
     13 C          -0.821308    3.608629   -0.395919 C.3       1 <1>        -0.062405 
     14 C          -1.851937    2.475047    1.602259 C.3       1 <1>        -0.062405 
     15 C           2.987525   -0.514749   -0.408003 C.3       1 <1>        -0.061883 
     16 H          -2.231336    1.041535   -0.693509 H         1 <1>         0.030629 
     17 H          -1.499504   -0.438306    1.308828 H         1 <1>         0.031503 
     18 H           1.452582   -1.348400   -1.626880 H         1 <1>         0.030373 
     19 H           1.528889    1.634111   -0.950807 H         1 <1>         0.026811 
     20 H           1.661835    0.852899   -2.533433 H         1 <1>         0.026811 
     21 H          -0.556002    1.904155   -2.365092 H         1 <1>         0.026819 
     22 H          -0.746829    0.188272   -2.453733 H         1 <1>         0.026819 
     23 H          -0.799444   -1.738112   -1.374674 H         1 <1>         0.035401 
     24 H           1.531877   -3.492476    0.522067 H         1 <1>         0.031017 
     25 H           0.651389   -3.788376    2.067153 H         1 <1>         0.031017 
     26 H           0.344083   -1.401146    2.424151 H         1 <1>         0.027398 
     27 H           2.016931   -1.475714    1.871242 H         1 <1>         0.027398 
     28 H          -1.294324   -4.925072    0.794965 H         1 <1>         0.053449 
     29 H          -2.347218   -3.822589   -0.297815 H         1 <1>         0.053449 
     30 H           0.149533    2.158055    0.893802 H         1 <1>         0.029823 
     31 H          -0.778484    4.490532    0.260007 H         1 <1>         0.023242 
     32 H           0.063109    3.670895   -1.047730 H         1 <1>         0.023242 
     33 H          -1.731057    3.687655   -1.011218 H         1 <1>         0.023242 
     34 H          -1.589033    3.364693    2.195681 H         1 <1>         0.023242 
     35 H          -1.855610    1.621255    2.292520 H         1 <1>         0.023242 
     36 H          -2.869879    2.618839    1.211178 H         1 <1>         0.023242 
     37 H           3.111315    0.169285    0.444896 H         1 <1>         0.023259 
     38 H           3.635825   -0.167142   -1.225665 H         1 <1>         0.023259 
     39 H           3.326696   -1.520995   -0.117579 H         1 <1>         0.023259 
@<TRIPOS>BOND
     1    1    2 1    
     2    1    6 1    
     3    1   12 1    
     4    1   16 1    
     5    2    3 1    
     6    2    7 1    
     7    2   17 1    
     8    3    4 1    
     9    3    7 1    
    10    3   10 1    
    11    4    5 1    
    12    4   15 1    
    13    4   18 1    
    14    5    6 1    
    15    5   19 1    
    16    5   20 1    
    17    6   21 1    
    18    6   22 1    
    19    7    8 1    
    20    7   23 1    
    21    8    9 1    
    22    8   11 2    
    23    9   10 1    
    24    9   24 1    
    25    9   25 1    
    26   10   26 1    
    27   10   27 1    
    28   11   28 1    
    29   11   29 1    
    30   12   13 1    
    31   12   14 1    
    32   12   30 1    
    33   13   31 1    
    34   13   32 1    
    35   13   33 1    
    36   14   34 1    
    37   14   35 1    
    38   14   36 1    
    39   15   37 1    
    40   15   38 1    
    41   15   39 1    
@<TRIPOS>SUBSTRUCTURE
     1 ****        1 TEMP              0 ****  ****    0 ROOT 
@<TRIPOS>NORMAL
@<TRIPOS>FF_PBC
FORCE_FIELD_SETUP_FEATURE Force Field Setup information
v1.0  0 0.000000 0.000000 0.000000 0.000000 0.000000 0.000000 NONE 0 0 0 0 1 0 0 0 0 0 0 0 0
