@<TRIPOS>MOLECULE
MOL000211
   81    85     1     1     0
SMALL
GASTEIGER


@<TRIPOS>ATOM
      1 C           2.733048    1.856647   -1.090888 C.3       1 <1>        -0.016530 
      2 C           4.047391    1.501079   -0.345098 C.3       1 <1>         0.059584 
      3 C           1.471170    1.271966   -0.386816 C.3       1 <1>        -0.030772 
      4 C           2.884012    3.395563   -1.245753 C.3       1 <1>        -0.016314 
      5 C           4.201916   -0.041541   -0.248451 C.3       1 <1>        -0.037524 
      6 C           5.068645    2.190062   -1.292761 C.3       1 <1>        -0.037496 
      7 C           4.204246    2.149479    1.028401 C.2       1 <1>         0.266102 
      8 C           1.548138   -0.293546   -0.200601 C.3       1 <1>        -0.023246 
      9 C           0.163569    1.687364   -1.119003 C.3       1 <1>        -0.049114 
     10 C           4.398161    3.566335   -1.583400 C.3       1 <1>        -0.045260 
     11 C           2.022876    4.160861   -2.237370 C.2       1 <1>        -0.076310 
     12 C           2.949897   -0.709306    0.408426 C.3       1 <1>        -0.045876 
     13 O           3.342561    1.805514    1.983397 O.3       1 <1>        -0.330843 
     14 O           5.085116    2.962469    1.267166 O.2       1 <1>        -0.264547 
     15 C           0.306270   -0.704711    0.740424 C.3       1 <1>        -0.023070 
     16 C           1.555483   -1.011105   -1.617421 C.3       1 <1>        -0.058792 
     17 C          -1.104449    1.181575   -0.376245 C.3       1 <1>        -0.048916 
     18 C           1.635235    5.561764   -1.814460 C.3       1 <1>        -0.043768 
     19 C           1.623556    3.668482   -3.419242 C.2       1 <1>        -0.099438 
     20 C          -1.050639   -0.339934    0.011422 C.3       1 <1>        -0.029439 
     21 C           0.304018   -2.248314    1.013832 C.3       1 <1>        -0.046560 
     22 C          -2.411692   -0.925744    0.590571 C.3       1 <1>        -0.025247 
     23 C          -0.998881   -2.819097    1.650479 C.3       1 <1>        -0.048618 
     24 C          -2.254260   -2.480563    0.791562 C.3       1 <1>        -0.027845 
     25 C          -3.565283   -0.696796   -0.465922 C.3       1 <1>        -0.044730 
     26 C          -3.548676   -3.296367    1.205603 C.3       1 <1>        -0.005589 
     27 C          -4.511524   -1.907643   -0.714922 C.3       1 <1>        -0.025831 
     28 C          -4.846478   -2.661090    0.593087 C.3       1 <1>         0.060637 
     29 O          -5.543939   -1.802953    1.515102 O.3       1 <1>        -0.391248 
     30 H           2.771772    1.445691   -2.104754 H         1 <1>         0.031953 
     31 H           1.419326    1.777448    0.584780 H         1 <1>         0.030934 
     32 C          -2.823523   -0.196315    1.914725 C.3       1 <1>        -0.059019 
     33 C           0.373753    0.005986    2.153085 C.3       1 <1>        -0.058784 
     34 H          -1.997014   -2.856735   -0.211705 H         1 <1>         0.031210 
     35 H          -1.002049   -0.868930   -0.942584 H         1 <1>         0.031155 
     36 C          -3.439785   -4.763335    0.655119 C.3       1 <1>        -0.057190 
     37 C          -3.729238   -3.439378    2.749826 C.3       1 <1>        -0.057190 
     38 H           2.678829    3.807957   -0.243167 H         1 <1>         0.034848 
     39 H           4.388230   -0.463781   -1.245584 H         1 <1>         0.027568 
     40 H           5.104488   -0.264862    0.345238 H         1 <1>         0.027568 
     41 H           6.085206    2.273120   -0.875166 H         1 <1>         0.027568 
     42 H           5.151955    1.620162   -2.233557 H         1 <1>         0.027568 
     43 H           0.100455    2.787487   -1.162785 H         1 <1>         0.026829 
     44 H           0.164369    1.340115   -2.161545 H         1 <1>         0.026829 
     45 H           4.836075    4.364434   -0.961268 H         1 <1>         0.027135 
     46 H           4.554151    3.841718   -2.639871 H         1 <1>         0.027135 
     47 H           3.051370   -0.523818    1.479138 H         1 <1>         0.027106 
     48 H           3.086508   -1.798561    0.316433 H         1 <1>         0.027106 
     49 H           3.504031    2.257050    2.805208 H         1 <1>         0.220226 
     50 H           2.396496   -0.714668   -2.247354 H         1 <1>         0.023533 
     51 H           1.675492   -2.097810   -1.544811 H         1 <1>         0.023533 
     52 H           0.688458   -0.845479   -2.261159 H         1 <1>         0.023533 
     53 H          -1.959373    1.404648   -1.031148 H         1 <1>         0.026837 
     54 H          -1.229119    1.837845    0.492572 H         1 <1>         0.026837 
     55 H           0.976296    5.513516   -0.934587 H         1 <1>         0.027436 
     56 H           1.110822    6.120067   -2.604339 H         1 <1>         0.027436 
     57 H           2.542800    6.124418   -1.547796 H         1 <1>         0.027436 
     58 H           1.000603    4.258687   -4.090321 H         1 <1>         0.053440 
     59 H           1.886720    2.679456   -3.784315 H         1 <1>         0.053440 
     60 H           1.157068   -2.511110    1.659878 H         1 <1>         0.027087 
     61 H           0.411613   -2.816153    0.083762 H         1 <1>         0.027087 
     62 H          -0.857182   -3.909168    1.711184 H         1 <1>         0.026846 
     63 H          -1.135821   -2.490674    2.686393 H         1 <1>         0.026846 
     64 H          -4.176002    0.173685   -0.174242 H         1 <1>         0.027149 
     65 H          -3.185855   -0.474335   -1.475894 H         1 <1>         0.027149 
     66 H          -4.052213   -2.620082   -1.419789 H         1 <1>         0.029037 
     67 H          -5.442548   -1.554181   -1.189843 H         1 <1>         0.029037 
     68 H          -5.573980   -3.458925    0.353120 H         1 <1>         0.059852 
     69 H          -6.334048   -1.409193    1.157741 H         1 <1>         0.209800 
     70 H          -3.850860   -0.416338    2.206033 H         1 <1>         0.023525 
     71 H          -2.798672    0.893423    1.804334 H         1 <1>         0.023525 
     72 H          -2.206218   -0.455008    2.776515 H         1 <1>         0.023525 
     73 H           1.363390    0.340536    2.459292 H         1 <1>         0.023533 
     74 H          -0.243836    0.904343    2.225557 H         1 <1>         0.023533 
     75 H           0.071207   -0.639502    2.982812 H         1 <1>         0.023533 
     76 H          -4.310066   -5.365970    0.959769 H         1 <1>         0.023587 
     77 H          -2.550968   -5.288562    1.028774 H         1 <1>         0.023587 
     78 H          -3.398064   -4.781223   -0.444283 H         1 <1>         0.023587 
     79 H          -4.693877   -3.922416    2.970812 H         1 <1>         0.023587 
     80 H          -3.718512   -2.473375    3.267206 H         1 <1>         0.023587 
     81 H          -2.941627   -4.065756    3.194048 H         1 <1>         0.023587 
@<TRIPOS>BOND
     1    1    2 1    
     2    1    3 1    
     3    1    4 1    
     4    1   30 1    
     5    2    5 1    
     6    2    6 1    
     7    2    7 1    
     8    3    8 1    
     9    3    9 1    
    10    3   31 1    
    11    4   10 1    
    12    4   11 1    
    13    4   38 1    
    14    5   12 1    
    15    5   39 1    
    16    5   40 1    
    17    6   10 1    
    18    6   41 1    
    19    6   42 1    
    20    7   13 1    
    21    7   14 2    
    22    8   12 1    
    23    8   15 1    
    24    8   16 1    
    25    9   17 1    
    26    9   43 1    
    27    9   44 1    
    28   10   45 1    
    29   10   46 1    
    30   11   18 1    
    31   11   19 2    
    32   12   47 1    
    33   12   48 1    
    34   13   49 1    
    35   15   20 1    
    36   15   21 1    
    37   15   33 1    
    38   16   50 1    
    39   16   51 1    
    40   16   52 1    
    41   17   20 1    
    42   17   53 1    
    43   17   54 1    
    44   18   55 1    
    45   18   56 1    
    46   18   57 1    
    47   19   58 1    
    48   19   59 1    
    49   20   22 1    
    50   20   35 1    
    51   21   23 1    
    52   21   60 1    
    53   21   61 1    
    54   22   24 1    
    55   22   25 1    
    56   22   32 1    
    57   23   24 1    
    58   23   62 1    
    59   23   63 1    
    60   24   26 1    
    61   24   34 1    
    62   25   27 1    
    63   25   64 1    
    64   25   65 1    
    65   26   28 1    
    66   26   36 1    
    67   26   37 1    
    68   27   28 1    
    69   27   66 1    
    70   27   67 1    
    71   28   29 1    
    72   28   68 1    
    73   29   69 1    
    74   32   70 1    
    75   32   71 1    
    76   32   72 1    
    77   33   73 1    
    78   33   74 1    
    79   33   75 1    
    80   36   76 1    
    81   36   77 1    
    82   36   78 1    
    83   37   79 1    
    84   37   80 1    
    85   37   81 1    
@<TRIPOS>SUBSTRUCTURE
     1 ****        1 TEMP              0 ****  ****    0 ROOT 
@<TRIPOS>NORMAL
@<TRIPOS>FF_PBC
FORCE_FIELD_SETUP_FEATURE Force Field Setup information
v1.0  0 0.000000 0.000000 0.000000 0.000000 0.000000 0.000000 NONE 0 0 0 0 1 0 0 0 0 0 0 0 0
