@<TRIPOS>MOLECULE
MOL002527
   49    50     1     1     0
SMALL
GASTEIGER


@<TRIPOS>ATOM
      1 O           3.292583   -1.417570    2.546760 O.3       1 <1>        -0.345341 
      2 O           3.124571   -3.699145    0.954345 O.3       1 <1>        -0.357269 
      3 O           2.790485    2.979776    0.038843 O.2       1 <1>        -0.292585 
      4 O          -5.258074   -2.265005   -1.004100 O.3       1 <1>        -0.345331 
      5 O           0.497967    2.422375    1.167700 O.3       1 <1>        -0.359723 
      6 O          -7.383753   -1.109453    0.456637 O.3       1 <1>        -0.357268 
      7 C           4.759275    1.354024   -1.445300 C.3       1 <1>        -0.020606 
      8 C           4.327460    0.027315   -0.807356 C.ar      1 <1>        -0.044352 
      9 C           3.511444    2.075429   -2.011669 C.3       1 <1>         0.013928 
     10 C           4.027202   -0.042829    0.562444 C.ar      1 <1>        -0.025965 
     11 C           4.222157   -1.190391   -1.644939 C.ar      1 <1>        -0.055970 
     12 C           2.496144    2.273738   -0.912550 C.2       1 <1>         0.158836 
     13 C           3.604252   -1.326303    1.182058 C.ar      1 <1>         0.105659 
     14 C           3.829526   -2.406199   -1.072126 C.ar      1 <1>        -0.029141 
     15 C           3.513463   -2.485995    0.377071 C.ar      1 <1>         0.102451 
     16 C           1.160162    1.643153   -0.939058 C.2       1 <1>         0.010538 
     17 C          -3.404306    0.534543    0.705968 C.ar      1 <1>        -0.022352 
     18 C           0.245190    1.735402    0.041595 C.2       1 <1>         0.075899 
     19 C          -2.033845    1.170917    0.826030 C.2       1 <1>        -0.052081 
     20 C          -3.667685   -0.592689   -0.091425 C.ar      1 <1>        -0.022001 
     21 C          -1.074942    1.080439   -0.106393 C.2       1 <1>        -0.031273 
     22 C          -5.035326   -1.154151   -0.187078 C.ar      1 <1>         0.105959 
     23 C          -4.520062    1.139155    1.475212 C.ar      1 <1>        -0.051999 
     24 C          -6.094891   -0.572418    0.542656 C.ar      1 <1>         0.102471 
     25 C          -5.818621    0.609222    1.397807 C.ar      1 <1>        -0.028841 
     26 C           3.267962   -0.257164    3.392904 C.3       1 <1>         0.043136 
     27 C          -5.991354   -1.988267   -2.208563 C.3       1 <1>         0.043136 
     28 H           5.486816    1.160371   -2.249529 H         1 <1>         0.031731 
     29 H           5.253393    1.992798   -0.695825 H         1 <1>         0.031731 
     30 H           3.089460    1.476321   -2.834146 H         1 <1>         0.034807 
     31 H           3.798138    3.058375   -2.417971 H         1 <1>         0.034807 
     32 H           4.108288    0.856568    1.158918 H         1 <1>         0.064684 
     33 H           4.448583   -1.139592   -2.704806 H         1 <1>         0.062110 
     34 H           3.757079   -3.291024   -1.695406 H         1 <1>         0.064412 
     35 H           0.919860    1.067061   -1.831423 H         1 <1>         0.067811 
     36 H          -1.839425    1.747884    1.730736 H         1 <1>         0.062424 
     37 H          -2.881376   -1.082820   -0.651094 H         1 <1>         0.065001 
     38 H          -1.263848    0.520913   -1.020273 H         1 <1>         0.064339 
     39 H          -4.332292    2.003549    2.104579 H         1 <1>         0.062425 
     40 H          -6.618962    1.070703    1.967609 H         1 <1>         0.064421 
     41 H           3.121405   -4.430985    0.349206 H         1 <1>         0.217422 
     42 H           2.540112    0.484212    3.027731 H         1 <1>         0.052871 
     43 H           4.268232    0.194880    3.474633 H         1 <1>         0.052871 
     44 H           2.956117   -0.584868    4.395239 H         1 <1>         0.052871 
     45 H           1.353449    2.840609    1.221925 H         1 <1>         0.217315 
     46 H          -8.014741   -0.687267    1.027656 H         1 <1>         0.217422 
     47 H          -5.455903   -1.251663   -2.827616 H         1 <1>         0.052871 
     48 H          -6.078280   -2.926829   -2.775231 H         1 <1>         0.052871 
     49 H          -7.004692   -1.616106   -1.994484 H         1 <1>         0.052871 
@<TRIPOS>BOND
     1   13    1 1    
     2    1   26 1    
     3   15    2 1    
     4    2   41 1    
     5   12    3 2    
     6   22    4 1    
     7    4   27 1    
     8   18    5 1    
     9    5   45 1    
    10   24    6 1    
    11    6   46 1    
    12    7    8 1    
    13    9    7 1    
    14    7   28 1    
    15    7   29 1    
    16    8   10 2    
    17    8   11 1    
    18   12    9 1    
    19    9   30 1    
    20    9   31 1    
    21   10   13 1    
    22   10   32 1    
    23   11   14 2    
    24   11   33 1    
    25   16   12 1    
    26   13   15 2    
    27   14   15 1    
    28   14   34 1    
    29   18   16 2    
    30   16   35 1    
    31   17   19 1    
    32   20   17 2    
    33   17   23 1    
    34   21   18 1    
    35   19   21 2    
    36   19   36 1    
    37   22   20 1    
    38   20   37 1    
    39   21   38 1    
    40   22   24 2    
    41   23   25 2    
    42   23   39 1    
    43   24   25 1    
    44   25   40 1    
    45   26   42 1    
    46   26   43 1    
    47   26   44 1    
    48   27   47 1    
    49   27   48 1    
    50   27   49 1    
@<TRIPOS>SUBSTRUCTURE
     1 ****       17 TEMP              0 ****  ****    0 ROOT 
@<TRIPOS>NORMAL
@<TRIPOS>FF_PBC
FORCE_FIELD_SETUP_FEATURE Force Field Setup information
v1.0  0 0.000000 0.000000 0.000000 0.000000 0.000000 0.000000 NONE 0 0 0 0 1 0 0 0 0 0 0 0 0
