@<TRIPOS>MOLECULE
MOL012941
   26    26     1     1     0
SMALL
GASTEIGER


@<TRIPOS>ATOM
      1 C          -1.732735    1.423495   -0.408403 C.3       1 <1>        -0.031959 
      2 C          -2.127980   -0.066089   -0.566897 C.3       1 <1>        -0.048553 
      3 C          -1.173881   -0.934898    0.284718 C.3       1 <1>        -0.042770 
      4 C           0.271097   -0.789902   -0.256923 C.3       1 <1>        -0.002105 
      5 C           0.639533    0.646965   -0.542561 C.2       1 <1>        -0.077950 
      6 C          -0.251245    1.647682   -0.607994 C.2       1 <1>        -0.075965 
      7 C           0.167267    3.075096   -0.880862 C.3       1 <1>        -0.043769 
      8 C           1.234159   -1.416768    0.731396 C.2       1 <1>        -0.072879 
      9 C           1.676313   -2.832470    0.437341 C.3       1 <1>        -0.043483 
     10 C           1.661517   -0.748588    1.811827 C.2       1 <1>        -0.099152 
     11 H          -1.990769    1.774473    0.603598 H         1 <1>         0.030990 
     12 H          -2.310749    2.017416   -1.135012 H         1 <1>         0.030990 
     13 H          -3.172628   -0.213366   -0.244622 H         1 <1>         0.026857 
     14 H          -2.047963   -0.365336   -1.625353 H         1 <1>         0.026857 
     15 H          -1.221330   -0.596174    1.332781 H         1 <1>         0.027404 
     16 H          -1.482916   -1.992844    0.251075 H         1 <1>         0.027404 
     17 H           0.344808   -1.303462   -1.229990 H         1 <1>         0.038791 
     18 H           1.698143    0.852012   -0.706827 H         1 <1>         0.057749 
     19 H           1.259442    3.193219   -0.947042 H         1 <1>         0.027436 
     20 H          -0.198878    3.724394   -0.071373 H         1 <1>         0.027436 
     21 H          -0.272821    3.411718   -1.831518 H         1 <1>         0.027436 
     22 H           2.235005   -2.854523   -0.510369 H         1 <1>         0.027446 
     23 H           0.792908   -3.481859    0.344687 H         1 <1>         0.027446 
     24 H           2.323177   -3.243176    1.227354 H         1 <1>         0.027446 
     25 H           2.354136   -1.194985    2.524406 H         1 <1>         0.053450 
     26 H           1.326589    0.267969    2.016461 H         1 <1>         0.053450 
@<TRIPOS>BOND
     1    1    2 1    
     2    1    6 1    
     3    1   11 1    
     4    1   12 1    
     5    2    3 1    
     6    2   13 1    
     7    2   14 1    
     8    3    4 1    
     9    3   15 1    
    10    3   16 1    
    11    4    5 1    
    12    4    8 1    
    13    4   17 1    
    14    5    6 2    
    15    5   18 1    
    16    6    7 1    
    17    7   19 1    
    18    7   20 1    
    19    7   21 1    
    20    8    9 1    
    21    8   10 2    
    22    9   22 1    
    23    9   23 1    
    24    9   24 1    
    25   10   25 1    
    26   10   26 1    
@<TRIPOS>SUBSTRUCTURE
     1 ****        1 TEMP              0 ****  ****    0 ROOT 
@<TRIPOS>NORMAL
@<TRIPOS>FF_PBC
FORCE_FIELD_SETUP_FEATURE Force Field Setup information
v1.0  0 0.000000 0.000000 0.000000 0.000000 0.000000 0.000000 NONE 0 0 0 0 1 0 0 0 0 0 0 0 0
