@<TRIPOS>MOLECULE
MOL005343
   85    88     1     1     0
SMALL
GASTEIGER


@<TRIPOS>ATOM
      1 O           0.422551    2.443988   -1.289134 O.3       1 <1>        -0.391475 
      2 O          -5.734929   -4.094463   -0.385100 O.3       1 <1>        -0.391248 
      3 O           4.571131    2.810628    1.055876 O.3       1 <1>        -0.388552 
      4 C          -0.355627   -0.935390    1.188110 C.3       1 <1>        -0.022908 
      5 C           0.751892    0.093407    1.706234 C.3       1 <1>        -0.020884 
      6 C          -1.614024   -0.062369    0.775462 C.3       1 <1>        -0.027109 
      7 C          -3.034004   -0.752969    0.569155 C.3       1 <1>        -0.025167 
      8 C           1.194759    1.051223    0.552672 C.3       1 <1>        -0.003645 
      9 C          -3.257272   -1.927496    1.608646 C.3       1 <1>        -0.027844 
     10 C          -0.719367   -1.977572    2.309770 C.3       1 <1>        -0.046558 
     11 C          -1.220514    0.949282   -0.353820 C.3       1 <1>        -0.022712 
     12 C           2.408156    1.826244    1.157352 C.3       1 <1>        -0.006683 
     13 C           0.007478    1.859862   -0.040847 C.3       1 <1>         0.059199 
     14 C           2.149578   -0.493988    2.080478 C.3       1 <1>        -0.046422 
     15 C          -2.200378   -1.919685    2.763180 C.3       1 <1>        -0.048618 
     16 C          -3.820390   -3.308681    1.063367 C.3       1 <1>        -0.005589 
     17 C           3.142563    0.703775    1.960926 C.3       1 <1>        -0.046740 
     18 C          -3.251304   -1.224503   -0.904879 C.3       1 <1>        -0.044729 
     19 C           0.156593   -1.816099   -0.013378 C.3       1 <1>        -0.058782 
     20 C           0.286806    0.905645    2.983724 C.3       1 <1>        -0.058710 
     21 C          -4.160602    0.329916    0.805233 C.3       1 <1>        -0.059018 
     22 C          -4.976141   -2.957469    0.068946 C.3       1 <1>         0.060637 
     23 C          -4.527785   -2.087514   -1.143295 C.3       1 <1>        -0.025831 
     24 C           3.386149    2.658155    0.247993 C.3       1 <1>         0.066753 
     25 C          -4.451460   -4.152850    2.227199 C.3       1 <1>        -0.057190 
     26 C          -2.797789   -4.267389    0.374890 C.3       1 <1>        -0.057190 
     27 C           3.722376    1.907989   -1.083605 C.3       1 <1>        -0.020552 
     28 C           2.848477    4.101598   -0.012738 C.3       1 <1>        -0.035798 
     29 C           4.926401    2.457247   -1.900123 C.3       1 <1>        -0.031929 
     30 C           5.035107    1.702866   -3.207137 C.2       1 <1>        -0.085195 
     31 C           4.518278    2.106119   -4.379942 C.2       1 <1>        -0.079616 
     32 C           4.717027    1.299070   -5.645033 C.3       1 <1>        -0.044050 
     33 C           3.711380    3.377195   -4.538749 C.3       1 <1>        -0.044050 
     34 H          -0.244385    2.983007   -1.703934 H         1 <1>         0.209789 
     35 H          -5.245684   -4.691039   -0.939890 H         1 <1>         0.209800 
     36 H           5.243716    3.365197    0.677547 H         1 <1>         0.210159 
     37 H          -1.813156    0.580492    1.636828 H         1 <1>         0.031235 
     38 H           1.603948    0.457449   -0.272793 H         1 <1>         0.033467 
     39 H          -4.133187   -1.618609    2.203091 H         1 <1>         0.031210 
     40 H          -0.518598   -3.012884    2.008185 H         1 <1>         0.027087 
     41 H          -0.077573   -1.866505    3.195263 H         1 <1>         0.027087 
     42 H          -2.041544    1.643000   -0.577647 H         1 <1>         0.029314 
     43 H          -1.018168    0.411389   -1.288723 H         1 <1>         0.029314 
     44 H           2.003921    2.547340    1.883571 H         1 <1>         0.033201 
     45 H          -0.272994    2.669446    0.652479 H         1 <1>         0.059620 
     46 H           2.176896   -0.955809    3.080537 H         1 <1>         0.027088 
     47 H           2.495291   -1.251831    1.367523 H         1 <1>         0.027088 
     48 H          -2.381991   -2.735694    3.478623 H         1 <1>         0.026846 
     49 H          -2.314206   -0.989110    3.345551 H         1 <1>         0.026846 
     50 H           3.446348    1.078710    2.953024 H         1 <1>         0.026910 
     51 H           4.066557    0.371558    1.460012 H         1 <1>         0.026910 
     52 H          -3.323951   -0.355999   -1.579689 H         1 <1>         0.027149 
     53 H          -2.376978   -1.766084   -1.266170 H         1 <1>         0.027149 
     54 H           0.400971   -1.288333   -0.940158 H         1 <1>         0.023533 
     55 H           1.033033   -2.419419    0.249105 H         1 <1>         0.023533 
     56 H          -0.591127   -2.562727   -0.278604 H         1 <1>         0.023533 
     57 H          -0.291251    1.807442    2.751202 H         1 <1>         0.023534 
     58 H           1.122580    1.253092    3.607013 H         1 <1>         0.023534 
     59 H          -0.330334    0.314025    3.667162 H         1 <1>         0.023534 
     60 H          -5.166488   -0.095206    0.688172 H         1 <1>         0.023525 
     61 H          -4.116994    1.175532    0.107876 H         1 <1>         0.023525 
     62 H          -4.111437    0.747949    1.823270 H         1 <1>         0.023525 
     63 H          -5.731968   -2.395615    0.641929 H         1 <1>         0.059852 
     64 H          -4.332668   -2.737841   -2.012135 H         1 <1>         0.029037 
     65 H          -5.376928   -1.443305   -1.430699 H         1 <1>         0.029037 
     66 H          -4.995415   -5.024356    1.831921 H         1 <1>         0.023587 
     67 H          -3.680939   -4.545647    2.905516 H         1 <1>         0.023587 
     68 H          -5.173201   -3.576151    2.825312 H         1 <1>         0.023587 
     69 H          -2.446862   -3.913810   -0.597506 H         1 <1>         0.023587 
     70 H          -1.935524   -4.452870    1.023151 H         1 <1>         0.023587 
     71 H          -3.247926   -5.253041    0.186690 H         1 <1>         0.023587 
     72 H           3.947386    0.852001   -0.870450 H         1 <1>         0.029579 
     73 H           2.837444    1.937978   -1.735523 H         1 <1>         0.029579 
     74 H           1.931185    4.106290   -0.608651 H         1 <1>         0.025730 
     75 H           2.637885    4.608871    0.940880 H         1 <1>         0.025730 
     76 H           3.586879    4.719050   -0.541404 H         1 <1>         0.025730 
     77 H           4.841496    3.534949   -2.090147 H         1 <1>         0.030829 
     78 H           5.866192    2.302009   -1.346520 H         1 <1>         0.030829 
     79 H           5.580260    0.758564   -3.164969 H         1 <1>         0.057146 
     80 H           5.164274    1.941211   -6.418840 H         1 <1>         0.027427 
     81 H           3.742844    0.935677   -6.005508 H         1 <1>         0.027427 
     82 H           5.375351    0.428665   -5.503234 H         1 <1>         0.027427 
     83 H           3.032542    3.304430   -5.401912 H         1 <1>         0.027427 
     84 H           4.398108    4.219898   -4.707705 H         1 <1>         0.027427 
     85 H           3.088291    3.590638   -3.658298 H         1 <1>         0.027427 
@<TRIPOS>BOND
     1   13    1 1    
     2    1   34 1    
     3   22    2 1    
     4    2   35 1    
     5   24    3 1    
     6    3   36 1    
     7    4    5 1    
     8    6    4 1    
     9   10    4 1    
    10    4   19 1    
    11    5    8 1    
    12    5   14 1    
    13    5   20 1    
    14    7    6 1    
    15    6   11 1    
    16    6   37 1    
    17    9    7 1    
    18    7   18 1    
    19    7   21 1    
    20    8   12 1    
    21   13    8 1    
    22    8   38 1    
    23    9   15 1    
    24   16    9 1    
    25    9   39 1    
    26   15   10 1    
    27   10   40 1    
    28   10   41 1    
    29   11   13 1    
    30   11   42 1    
    31   11   43 1    
    32   17   12 1    
    33   12   24 1    
    34   12   44 1    
    35   13   45 1    
    36   14   17 1    
    37   14   46 1    
    38   14   47 1    
    39   15   48 1    
    40   15   49 1    
    41   16   22 1    
    42   16   25 1    
    43   16   26 1    
    44   17   50 1    
    45   17   51 1    
    46   18   23 1    
    47   18   52 1    
    48   18   53 1    
    49   19   54 1    
    50   19   55 1    
    51   19   56 1    
    52   20   57 1    
    53   20   58 1    
    54   20   59 1    
    55   21   60 1    
    56   21   61 1    
    57   21   62 1    
    58   22   23 1    
    59   22   63 1    
    60   23   64 1    
    61   23   65 1    
    62   24   27 1    
    63   24   28 1    
    64   25   66 1    
    65   25   67 1    
    66   25   68 1    
    67   26   69 1    
    68   26   70 1    
    69   26   71 1    
    70   27   29 1    
    71   27   72 1    
    72   27   73 1    
    73   28   74 1    
    74   28   75 1    
    75   28   76 1    
    76   29   30 1    
    77   29   77 1    
    78   29   78 1    
    79   30   31 2    
    80   30   79 1    
    81   31   32 1    
    82   31   33 1    
    83   32   80 1    
    84   32   81 1    
    85   32   82 1    
    86   33   83 1    
    87   33   84 1    
    88   33   85 1    
@<TRIPOS>SUBSTRUCTURE
     1 ****        4 TEMP              0 ****  ****    0 ROOT 
@<TRIPOS>NORMAL
@<TRIPOS>FF_PBC
FORCE_FIELD_SETUP_FEATURE Force Field Setup information
v1.0  0 0.000000 0.000000 0.000000 0.000000 0.000000 0.000000 NONE 0 0 0 0 1 0 0 0 0 0 0 0 0
