@<TRIPOS>MOLECULE
MOL004621
   22    21     1     1     0
SMALL
GASTEIGER


@<TRIPOS>ATOM
      1 O          -2.483726   -1.508989    1.187410 O.3       1 <1>        -0.392376 
      2 C          -1.155349   -1.890259    0.785993 C.3       1 <1>         0.072650 
      3 C          -0.141210   -0.728702    0.985628 C.3       1 <1>         0.106476 
      4 O          -0.495495   -0.027026    2.193709 O.3       1 <1>        -0.386870 
      5 H           0.856042   -1.188403    1.120779 H         1 <1>         0.064289 
      6 C           0.004317    0.254954   -0.217317 C.3       1 <1>         0.111083 
      7 O           1.120017    1.101109    0.143210 O.3       1 <1>        -0.386511 
      8 H           0.295381   -0.322928   -1.111999 H         1 <1>         0.064650 
      9 C          -1.252891    1.126440   -0.544127 C.3       1 <1>         0.106476 
     10 O          -1.848224    1.717382    0.624101 O.3       1 <1>        -0.386870 
     11 H          -0.905774    1.972249   -1.160451 H         1 <1>         0.064289 
     12 C          -2.318570    0.417645   -1.424736 C.3       1 <1>         0.072650 
     13 O          -1.688970   -0.097238   -2.613935 O.3       1 <1>        -0.392376 
     14 H          -2.508623   -1.237915    2.101774 H         1 <1>         0.209508 
     15 H          -0.856506   -2.752943    1.407864 H         1 <1>         0.058361 
     16 H          -1.161725   -2.225222   -0.262813 H         1 <1>         0.058361 
     17 H           0.113286    0.684852    2.375230 H         1 <1>         0.209989 
     18 H           1.390430    1.706801   -0.540319 H         1 <1>         0.210003 
     19 H          -2.157699    1.059470    1.238431 H         1 <1>         0.209989 
     20 H          -2.816865   -0.391432   -0.876209 H         1 <1>         0.058361 
     21 H          -3.091713    1.157652   -1.695662 H         1 <1>         0.058361 
     22 H          -2.300931   -0.524099   -3.207262 H         1 <1>         0.209508 
@<TRIPOS>BOND
     1    1    2 1    
     2    1   14 1    
     3    2    3 1    
     4    2   15 1    
     5    2   16 1    
     6    3    4 1    
     7    3    5 1    
     8    3    6 1    
     9    4   17 1    
    10    6    7 1    
    11    6    8 1    
    12    6    9 1    
    13    7   18 1    
    14    9   10 1    
    15    9   11 1    
    16    9   12 1    
    17   10   19 1    
    18   12   13 1    
    19   12   20 1    
    20   12   21 1    
    21   13   22 1    
@<TRIPOS>SUBSTRUCTURE
     1 ****        1 TEMP              0 ****  ****    0 ROOT 
@<TRIPOS>NORMAL
@<TRIPOS>FF_PBC
FORCE_FIELD_SETUP_FEATURE Force Field Setup information
v1.0  0 0.000000 0.000000 0.000000 0.000000 0.000000 0.000000 NONE 0 0 0 0 1 0 0 0 0 0 0 0 0
