@<TRIPOS>MOLECULE
MOL003051
   72    76     1     1     0
SMALL
GASTEIGER


@<TRIPOS>ATOM
      1 O           0.308259   -1.617562   -1.328454 O.3       1 <1>        -0.337748 
      2 O           0.245904   -3.394110    1.198041 O.3       1 <1>        -0.340157 
      3 O          -1.905131   -2.204137   -0.796952 O.3       1 <1>        -0.343067 
      4 O           3.227928   -1.381570    0.909271 O.3       1 <1>        -0.386391 
      5 O           0.833575   -1.491289    2.467156 O.3       1 <1>        -0.312375 
      6 O           1.798737   -4.057311   -1.296076 O.3       1 <1>        -0.386488 
      7 O          -2.821380   -0.410980   -2.934980 O.3       1 <1>        -0.384104 
      8 O          -1.892464   -2.040571   -4.987954 O.3       1 <1>        -0.386402 
      9 O          -2.072463   -4.561026   -3.725499 O.3       1 <1>        -0.386579 
     10 O           3.522283   -4.707439    2.486886 O.3       1 <1>        -0.392366 
     11 O          -0.199220    3.219150    1.482376 O.3       1 <1>        -0.307711 
     12 O           3.668542    2.101157    4.310729 O.3       1 <1>        -0.358955 
     13 O           2.928503    4.622596    3.633145 O.2       1 <1>        -0.287017 
     14 O          -2.957290    4.830316   -2.442479 O.3       1 <1>        -0.357261 
     15 O          -3.134458    7.673280   -2.167990 O.3       1 <1>        -0.357274 
     16 C           0.972875   -1.390684   -0.057645 C.3       1 <1>         0.141013 
     17 C           2.415804   -1.952448   -0.139950 C.3       1 <1>         0.114441 
     18 C           2.377608   -3.510703   -0.088339 C.3       1 <1>         0.111906 
     19 C          -1.074244   -1.187049   -1.389163 C.3       1 <1>         0.188431 
     20 C          -1.483517   -0.947188   -2.864553 C.3       1 <1>         0.134123 
     21 C           0.268549   -1.954774    1.220326 C.3       1 <1>         0.194011 
     22 C           1.554655   -4.004034    1.138633 C.3       1 <1>         0.113017 
     23 C          -1.394283   -2.274818   -3.651543 C.3       1 <1>         0.113972 
     24 C          -2.243660   -3.362098   -2.943651 C.3       1 <1>         0.109478 
     25 C          -1.788956   -3.490975   -1.459060 C.3       1 <1>         0.087307 
     26 C           2.322886   -3.917356    2.488953 C.3       1 <1>         0.073015 
     27 C          -2.646191   -4.517458   -0.673587 C.3       1 <1>        -0.036060 
     28 C           1.085969   -0.131410    2.659581 C.ar      1 <1>         0.084401 
     29 C           0.213797    0.912869    2.065520 C.ar      1 <1>        -0.000161 
     30 C           2.212331    0.254167    3.414096 C.ar      1 <1>        -0.000933 
     31 C           0.573119    2.260133    2.140428 C.ar      1 <1>         0.098813 
     32 C           2.560512    1.689430    3.556983 C.ar      1 <1>         0.088322 
     33 C           1.761379    2.653501    2.913682 C.ar      1 <1>         0.081945 
     34 C           2.034355    4.135679    2.956490 C.2       1 <1>         0.193509 
     35 C           0.141257    4.517957    1.441568 C.2       1 <1>         0.093944 
     36 C           1.186804    4.998939    2.132804 C.2       1 <1>         0.016919 
     37 C          -0.703688    5.400547    0.551248 C.ar      1 <1>         0.008184 
     38 C          -1.459664    4.738769   -0.544948 C.ar      1 <1>        -0.019772 
     39 C          -0.804356    6.809089    0.706242 C.ar      1 <1>        -0.049519 
     40 C          -2.255803    5.478818   -1.422845 C.ar      1 <1>         0.102827 
     41 C          -1.639566    7.600677   -0.234870 C.ar      1 <1>        -0.028770 
     42 C          -2.345851    6.952021   -1.266520 C.ar      1 <1>         0.102222 
     43 H           1.085450   -0.299639    0.010838 H         1 <1>         0.067490 
     44 H           2.847834   -1.631417   -1.105662 H         1 <1>         0.064768 
     45 H           3.412249   -3.908735   -0.011478 H         1 <1>         0.064673 
     46 H          -1.236629   -0.227436   -0.870500 H         1 <1>         0.093753 
     47 H          -0.791304   -0.222129   -3.329195 H         1 <1>         0.067095 
     48 H          -0.787295   -1.663344    1.238702 H         1 <1>         0.094170 
     49 H           1.353837   -5.075647    0.966762 H         1 <1>         0.064668 
     50 H          -0.340265   -2.607116   -3.701135 H         1 <1>         0.064757 
     51 H          -3.294256   -3.028885   -2.960950 H         1 <1>         0.064584 
     52 H          -0.749169   -3.853216   -1.412147 H         1 <1>         0.062075 
     53 H           1.651134   -4.228459    3.302651 H         1 <1>         0.058370 
     54 H           2.656063   -2.901797    2.707305 H         1 <1>         0.058370 
     55 H          -2.318487   -4.540655    0.373161 H         1 <1>         0.025536 
     56 H          -3.711780   -4.238660   -0.697998 H         1 <1>         0.025536 
     57 H          -2.545928   -5.532107   -1.082247 H         1 <1>         0.025536 
     58 H           4.134853   -1.673603    0.883391 H         1 <1>         0.210005 
     59 H           2.270053   -3.816146   -2.088675 H         1 <1>         0.210004 
     60 H          -3.112223   -0.290327   -3.836981 H         1 <1>         0.210110 
     61 H          -1.911532   -2.846230   -5.500152 H         1 <1>         0.210005 
     62 H          -2.649835   -5.273443   -3.476697 H         1 <1>         0.210002 
     63 H           3.362981   -5.642194    2.407984 H         1 <1>         0.209508 
     64 H          -0.697805    0.646745    1.553324 H         1 <1>         0.066957 
     65 H           2.831990   -0.514126    3.873877 H         1 <1>         0.066933 
     66 H           1.493365    6.043993    2.124620 H         1 <1>         0.068219 
     67 H           4.147282    1.390777    4.729521 H         1 <1>         0.217342 
     68 H          -1.399927    3.667008   -0.673901 H         1 <1>         0.065074 
     69 H          -0.295347    7.331946    1.500214 H         1 <1>         0.062505 
     70 H          -1.690353    8.674236   -0.113940 H         1 <1>         0.064422 
     71 H          -3.440709    5.444352   -2.987461 H         1 <1>         0.217422 
     72 H          -3.091878    8.615258   -2.050690 H         1 <1>         0.217422 
@<TRIPOS>BOND
     1   16    1 1    
     2    1   19 1    
     3   21    2 1    
     4    2   22 1    
     5   19    3 1    
     6    3   25 1    
     7   17    4 1    
     8    4   58 1    
     9    5   21 1    
    10   28    5 1    
    11   18    6 1    
    12    6   59 1    
    13   20    7 1    
    14    7   60 1    
    15   23    8 1    
    16    8   61 1    
    17   24    9 1    
    18    9   62 1    
    19   26   10 1    
    20   10   63 1    
    21   11   31 1    
    22   35   11 1    
    23   32   12 1    
    24   12   67 1    
    25   34   13 2    
    26   40   14 1    
    27   14   71 1    
    28   42   15 1    
    29   15   72 1    
    30   16   17 1    
    31   21   16 1    
    32   16   43 1    
    33   17   18 1    
    34   17   44 1    
    35   22   18 1    
    36   18   45 1    
    37   19   20 1    
    38   19   46 1    
    39   20   23 1    
    40   20   47 1    
    41   21   48 1    
    42   22   26 1    
    43   22   49 1    
    44   23   24 1    
    45   23   50 1    
    46   25   24 1    
    47   24   51 1    
    48   25   27 1    
    49   25   52 1    
    50   26   53 1    
    51   26   54 1    
    52   27   55 1    
    53   27   56 1    
    54   27   57 1    
    55   29   28 1    
    56   28   30 2    
    57   31   29 2    
    58   29   64 1    
    59   32   30 1    
    60   30   65 1    
    61   31   33 1    
    62   33   32 2    
    63   34   33 1    
    64   36   34 1    
    65   35   36 2    
    66   37   35 1    
    67   36   66 1    
    68   38   37 1    
    69   37   39 2    
    70   40   38 2    
    71   38   68 1    
    72   39   41 1    
    73   39   69 1    
    74   40   42 1    
    75   41   42 2    
    76   41   70 1    
@<TRIPOS>SUBSTRUCTURE
     1 ****        1 TEMP              0 ****  ****    0 ROOT 
@<TRIPOS>NORMAL
@<TRIPOS>FF_PBC
FORCE_FIELD_SETUP_FEATURE Force Field Setup information
v1.0  0 0.000000 0.000000 0.000000 0.000000 0.000000 0.000000 NONE 0 0 0 0 1 0 0 0 0 0 0 0 0
