@<TRIPOS>MOLECULE
MOL005151
   34    33     1     1     0
SMALL
GASTEIGER


@<TRIPOS>ATOM
      1 O           2.051910   -1.008063   -0.061966 O.3       1 <1>        -0.304907 
      2 O           3.969269    0.078788    0.483535 O.2       1 <1>        -0.265254 
      3 C           1.462908    0.246706   -0.472917 C.3       1 <1>         0.094177 
      4 C          -0.019498   -0.085559   -0.809210 C.3       1 <1>        -0.016361 
      5 C          -0.790593   -0.689542    0.396248 C.3       1 <1>        -0.031612 
      6 C           2.174158    0.765977   -1.757540 C.3       1 <1>        -0.031587 
      7 C           1.477085    1.250202    0.663489 C.2       1 <1>        -0.059369 
      8 C          -2.211659   -1.003017   -0.014999 C.2       1 <1>        -0.085185 
      9 C          -3.271697   -0.196140    0.160135 C.2       1 <1>        -0.079616 
     10 C           3.320088   -0.948822    0.369593 C.2       1 <1>         0.259834 
     11 C           1.225580    2.557153    0.516940 C.2       1 <1>        -0.099941 
     12 C          -4.662064   -0.630260   -0.252729 C.3       1 <1>        -0.044050 
     13 C          -3.180464    1.185171    0.773291 C.3       1 <1>        -0.044050 
     14 C           3.909010   -2.281820    0.736172 C.3       1 <1>         0.021463 
     15 H          -0.537724    0.826932   -1.144523 H         1 <1>         0.029912 
     16 H          -0.041981   -0.812844   -1.637311 H         1 <1>         0.029912 
     17 H          -0.771911   -0.012328    1.262350 H         1 <1>         0.030839 
     18 H          -0.304204   -1.624999    0.717309 H         1 <1>         0.030839 
     19 H           2.301408   -0.067589   -2.464882 H         1 <1>         0.026062 
     20 H           1.585981    1.548043   -2.259400 H         1 <1>         0.026062 
     21 H           3.165810    1.183142   -1.532717 H         1 <1>         0.026062 
     22 H           1.695582    0.878556    1.665880 H         1 <1>         0.059465 
     23 H          -2.357652   -1.972928   -0.493024 H         1 <1>         0.057146 
     24 H           1.251389    3.221780    1.380909 H         1 <1>         0.053262 
     25 H           0.986393    3.002913   -0.446522 H         1 <1>         0.053262 
     26 H          -5.023805    0.019270   -1.063995 H         1 <1>         0.027427 
     27 H          -5.342650   -0.535503    0.606907 H         1 <1>         0.027427 
     28 H          -4.703214   -1.672090   -0.604993 H         1 <1>         0.027427 
     29 H          -3.324535    1.104277    1.860901 H         1 <1>         0.027427 
     30 H          -2.219161    1.679426    0.574471 H         1 <1>         0.027427 
     31 H          -3.965899    1.840021    0.366480 H         1 <1>         0.027427 
     32 H           3.796506   -2.979674   -0.106720 H         1 <1>         0.033023 
     33 H           3.378777   -2.684657    1.611543 H         1 <1>         0.033023 
     34 H           4.977961   -2.183018    0.977996 H         1 <1>         0.033023 
@<TRIPOS>BOND
     1    1    3 1    
     2    1   10 1    
     3   10    2 2    
     4    3    4 1    
     5    3    6 1    
     6    3    7 1    
     7    4    5 1    
     8    4   15 1    
     9    4   16 1    
    10    5    8 1    
    11    5   17 1    
    12    5   18 1    
    13    6   19 1    
    14    6   20 1    
    15    6   21 1    
    16    7   11 2    
    17    7   22 1    
    18    8    9 2    
    19    8   23 1    
    20    9   12 1    
    21    9   13 1    
    22   10   14 1    
    23   11   24 1    
    24   11   25 1    
    25   12   26 1    
    26   12   27 1    
    27   12   28 1    
    28   13   29 1    
    29   13   30 1    
    30   13   31 1    
    31   14   32 1    
    32   14   33 1    
    33   14   34 1    
@<TRIPOS>SUBSTRUCTURE
     1 ****        1 TEMP              0 ****  ****    0 ROOT 
@<TRIPOS>NORMAL
@<TRIPOS>FF_PBC
FORCE_FIELD_SETUP_FEATURE Force Field Setup information
v1.0  0 0.000000 0.000000 0.000000 0.000000 0.000000 0.000000 NONE 0 0 0 0 1 0 0 0 0 0 0 0 0
