@<TRIPOS>MOLECULE
MOL002983
   17    17     1     1     0
SMALL
GASTEIGER


@<TRIPOS>ATOM
      1 C           0.036026    0.444353   -0.551517 C.ar      1 <1>         0.105402 
      2 C           0.744358   -0.734744    0.011133 C.ar      1 <1>         0.102434 
      3 C          -1.360266    0.422458   -0.701539 C.ar      1 <1>        -0.029156 
      4 O           0.746386    1.582385   -0.939391 O.3       1 <1>        -0.345350 
      5 C          -0.014236   -1.880991    0.401162 C.ar      1 <1>        -0.029397 
      6 O           2.136828   -0.709442    0.150848 O.3       1 <1>        -0.357269 
      7 C          -2.143621   -0.768878   -0.297295 C.ar      1 <1>        -0.059160 
      8 C           1.268239    2.356640    0.152436 C.3       1 <1>         0.043135 
      9 C          -1.487804   -1.889995    0.240606 C.ar      1 <1>        -0.059167 
     10 H          -1.865265    1.287791   -1.116550 H         1 <1>         0.064411 
     11 H           0.478448   -2.753341    0.816763 H         1 <1>         0.064403 
     12 H           2.517518   -1.536262    0.423468 H         1 <1>         0.217422 
     13 H          -3.222427   -0.772795   -0.417297 H         1 <1>         0.061839 
     14 H           1.790728    3.229306   -0.266014 H         1 <1>         0.052871 
     15 H           0.450417    2.710932    0.799085 H         1 <1>         0.052871 
     16 H           1.983302    1.776851    0.755493 H         1 <1>         0.052871 
     17 H          -2.058727   -2.763870    0.538608 H         1 <1>         0.061839 
@<TRIPOS>BOND
     1    1    2 1    
     2    1    3 2    
     3    1    4 1    
     4    2    5 2    
     5    2    6 1    
     6    3    7 1    
     7    3   10 1    
     8    4    8 1    
     9    5    9 1    
    10    5   11 1    
    11    6   12 1    
    12    7    9 2    
    13    7   13 1    
    14    8   14 1    
    15    8   15 1    
    16    8   16 1    
    17    9   17 1    
@<TRIPOS>SUBSTRUCTURE
     1 ****        1 TEMP              0 ****  ****    0 ROOT 
@<TRIPOS>NORMAL
@<TRIPOS>FF_PBC
FORCE_FIELD_SETUP_FEATURE Force Field Setup information
v1.0  0 0.000000 0.000000 0.000000 0.000000 0.000000 0.000000 NONE 0 0 0 0 1 0 0 0 0 0 0 0 0
