@<TRIPOS>MOLECULE
MOL000073
   35    37     1     1     0
SMALL
GASTEIGER


@<TRIPOS>ATOM
      1 C           4.295155    0.706124   -0.263960 C.ar      1 <1>         0.077480 
      2 C           4.560375   -0.635529    0.032377 C.ar      1 <1>        -0.001737 
      3 C           3.515346   -1.511187    0.337346 C.ar      1 <1>         0.080714 
      4 C           2.187183   -1.064478    0.311916 C.ar      1 <1>         0.014968 
      5 C           1.920252    0.280035    0.018708 C.ar      1 <1>         0.085208 
      6 C           2.972936    1.154229   -0.261072 C.ar      1 <1>        -0.001449 
      7 C           1.045250   -2.046697    0.600396 C.3       1 <1>         0.006117 
      8 C          -0.305470   -1.486659    0.090185 C.3       1 <1>         0.090048 
      9 C          -0.421263   -0.024562    0.583517 C.3       1 <1>         0.116322 
     10 O           0.613056    0.772534   -0.014456 O.3       1 <1>        -0.333862 
     11 O           5.321857    1.607241   -0.561272 O.3       1 <1>        -0.359667 
     12 O           3.815790   -2.833418    0.662883 O.3       1 <1>        -0.359394 
     13 O          -0.363419   -1.509577   -1.349451 O.3       1 <1>        -0.388542 
     14 C          -1.789088    0.548319    0.187446 C.ar      1 <1>        -0.013328 
     15 C          -1.982530    1.074088   -1.094432 C.ar      1 <1>        -0.053426 
     16 C          -3.219854    1.611034   -1.461736 C.ar      1 <1>        -0.029067 
     17 C          -4.281315    1.619952   -0.548403 C.ar      1 <1>         0.102203 
     18 C          -4.095020    1.083863    0.731819 C.ar      1 <1>         0.102526 
     19 C          -2.855216    0.551314    1.093658 C.ar      1 <1>        -0.023672 
     20 O          -5.140346    1.074044    1.659046 O.3       1 <1>        -0.357268 
     21 O          -5.530754    2.153882   -0.885972 O.3       1 <1>        -0.357275 
     22 H           5.576841   -1.012922    0.031904 H         1 <1>         0.066912 
     23 H           2.759858    2.194115   -0.481323 H         1 <1>         0.066920 
     24 H           1.242004   -3.021389    0.126974 H         1 <1>         0.034073 
     25 H           1.000097   -2.191056    1.691575 H         1 <1>         0.034073 
     26 H          -1.141547   -2.079031    0.504068 H         1 <1>         0.062592 
     27 H          -0.296492    0.022078    1.677941 H         1 <1>         0.067763 
     28 H           6.193314    1.227118   -0.570752 H         1 <1>         0.217316 
     29 H           3.468373   -3.077485    1.513754 H         1 <1>         0.217327 
     30 H          -0.304276   -2.385015   -1.718323 H         1 <1>         0.209916 
     31 H          -1.168198    1.065031   -1.812582 H         1 <1>         0.062193 
     32 H          -3.347004    2.018613   -2.459335 H         1 <1>         0.064413 
     33 H          -2.733576    0.138768    2.089174 H         1 <1>         0.064760 
     34 H          -5.932227    1.465517    1.302556 H         1 <1>         0.217422 
     35 H          -5.582094    2.512101   -1.765174 H         1 <1>         0.217422 
@<TRIPOS>BOND
     1    1    2 ar   
     2    1    6 ar   
     3    1   11 1    
     4    2    3 ar   
     5    2   22 1    
     6    3    4 ar   
     7    3   12 1    
     8    4    5 ar   
     9    4    7 1    
    10    5    6 ar   
    11    5   10 1    
    12    6   23 1    
    13    7    8 1    
    14    7   24 1    
    15    7   25 1    
    16    8    9 1    
    17    8   13 1    
    18    8   26 1    
    19    9   10 1    
    20    9   14 1    
    21    9   27 1    
    22   11   28 1    
    23   12   29 1    
    24   13   30 1    
    25   14   15 ar   
    26   14   19 ar   
    27   15   16 ar   
    28   15   31 1    
    29   16   17 ar   
    30   16   32 1    
    31   17   18 ar   
    32   17   21 1    
    33   18   19 ar   
    34   18   20 1    
    35   19   33 1    
    36   20   34 1    
    37   21   35 1    
@<TRIPOS>SUBSTRUCTURE
     1 ****        1 TEMP              0 ****  ****    0 ROOT 
@<TRIPOS>NORMAL
@<TRIPOS>FF_PBC
FORCE_FIELD_SETUP_FEATURE Force Field Setup information
v1.0  0 0.000000 0.000000 0.000000 0.000000 0.000000 0.000000 NONE 0 0 0 0 1 0 0 0 0 0 0 0 0
