@<TRIPOS>MOLECULE
MOL002165
   32    32     1     1     0
SMALL
GASTEIGER


@<TRIPOS>ATOM
      1 C          -0.943938    3.046547    0.102791 C.2       1 <1>         0.294235 
      2 C          -1.866901    1.847147    0.078721 C.ar      1 <1>         0.056907 
      3 C          -1.354420    0.456236    0.202627 C.ar      1 <1>         0.030236 
      4 C          -2.288040   -0.622733    0.150680 C.ar      1 <1>        -0.050511 
      5 C          -3.737134   -0.359652   -0.014602 C.ar      1 <1>        -0.061057 
      6 C          -4.207222    0.955758   -0.117431 C.ar      1 <1>        -0.060982 
      7 C          -3.250930    2.085145   -0.067481 C.ar      1 <1>        -0.048194 
      8 O          -0.916284    3.728123    1.113888 O.2       1 <1>        -0.259213 
      9 O          -0.174597    3.417040   -0.933704 O.3       1 <1>        -0.314743 
     10 C           0.128724    0.199982    0.384488 C.2       1 <1>         0.163914 
     11 C           0.718827   -1.188386    0.313422 C.3       1 <1>         0.010472 
     12 C           2.271812   -1.181618    0.344797 C.3       1 <1>        -0.046286 
     13 C           2.849764   -2.618798    0.232518 C.3       1 <1>        -0.055517 
     14 C           4.400366   -2.604606    0.255342 C.3       1 <1>        -0.065266 
     15 O           0.872237    1.144262    0.592450 O.2       1 <1>        -0.292038 
     16 C          -0.324234    2.615461   -2.121678 C.3       1 <1>         0.046196 
     17 H          -1.958673   -1.651589    0.235799 H         1 <1>         0.062470 
     18 H          -4.434758   -1.190376   -0.054176 H         1 <1>         0.061778 
     19 H          -5.268881    1.149626   -0.235319 H         1 <1>         0.061779 
     20 H          -3.620486    3.102661   -0.148881 H         1 <1>         0.062547 
     21 H           0.383808   -1.662312   -0.622477 H         1 <1>         0.034507 
     22 H           0.344959   -1.774501    1.167492 H         1 <1>         0.034507 
     23 H           2.615572   -0.722971    1.286937 H         1 <1>         0.026929 
     24 H           2.646808   -0.571839   -0.494328 H         1 <1>         0.026929 
     25 H           2.509297   -3.082470   -0.708474 H         1 <1>         0.026275 
     26 H           2.482085   -3.231311    1.072647 H         1 <1>         0.026275 
     27 H           4.790632   -3.631501    0.173592 H         1 <1>         0.022978 
     28 H           4.766410   -2.164640    1.196023 H         1 <1>         0.022978 
     29 H           4.791463   -2.013447   -0.587341 H         1 <1>         0.022978 
     30 H          -0.003719    1.574537   -1.967614 H         1 <1>         0.052972 
     31 H          -1.360683    2.632655   -2.494687 H         1 <1>         0.052972 
     32 H           0.324395    3.055791   -2.892991 H         1 <1>         0.052972 
@<TRIPOS>BOND
     1    1    2 1    
     2    1    8 2    
     3    1    9 1    
     4    2    3 1    
     5    2    7 2    
     6    3    4 2    
     7    3   10 1    
     8    4    5 1    
     9    4   17 1    
    10    5    6 2    
    11    5   18 1    
    12    6    7 1    
    13    6   19 1    
    14    7   20 1    
    15    9   16 1    
    16   10   11 1    
    17   10   15 2    
    18   11   12 1    
    19   11   21 1    
    20   11   22 1    
    21   12   13 1    
    22   12   23 1    
    23   12   24 1    
    24   13   14 1    
    25   13   25 1    
    26   13   26 1    
    27   14   27 1    
    28   14   28 1    
    29   14   29 1    
    30   16   30 1    
    31   16   31 1    
    32   16   32 1    
@<TRIPOS>SUBSTRUCTURE
     1 ****        1 TEMP              0 ****  ****    0 ROOT 
@<TRIPOS>NORMAL
@<TRIPOS>FF_PBC
FORCE_FIELD_SETUP_FEATURE Force Field Setup information
v1.0  0 0.000000 0.000000 0.000000 0.000000 0.000000 0.000000 NONE 0 0 0 0 1 0 0 0 0 0 0 0 0
