@<TRIPOS>MOLECULE
MOL002113
   30    31     1     1     0
SMALL
GASTEIGER


@<TRIPOS>ATOM
      1 C          -0.322221    0.907427   -0.497112 C.3       1 <1>        -0.001328 
      2 C          -0.204044   -0.580740   -0.260987 C.2       1 <1>        -0.063511 
      3 C           0.991177   -1.185531   -0.213511 C.2       1 <1>        -0.079967 
      4 C           2.301170   -0.463835   -0.392007 C.3       1 <1>        -0.013498 
      5 C           2.175873    1.009402   -0.681673 C.2       1 <1>        -0.072240 
      6 C           0.986234    1.620024   -0.728317 C.2       1 <1>        -0.077631 
      7 C          -1.037749    1.536031    0.726550 C.3       1 <1>        -0.043012 
      8 C          -2.415645    0.863476    0.957302 C.3       1 <1>        -0.051707 
      9 C          -2.248945   -0.667194    1.144406 C.3       1 <1>        -0.046718 
     10 C          -1.530182   -1.300066   -0.078360 C.3       1 <1>        -0.022164 
     11 C          -1.464536   -2.844466    0.084934 C.3       1 <1>        -0.058683 
     12 C           3.473690    1.750584   -0.914948 C.3       1 <1>        -0.043477 
     13 H          -0.932255    1.063180   -1.401896 H         1 <1>         0.038817 
     14 H           1.085177   -2.255560   -0.037009 H         1 <1>         0.057505 
     15 H           2.893408   -0.591461    0.527379 H         1 <1>         0.035230 
     16 H           2.841131   -0.938886   -1.225872 H         1 <1>         0.035230 
     17 H           0.934796    2.688188   -0.942684 H         1 <1>         0.057759 
     18 H          -1.183882    2.617587    0.567424 H         1 <1>         0.027395 
     19 H          -0.405605    1.402040    1.619998 H         1 <1>         0.027395 
     20 H          -2.894645    1.296979    1.851508 H         1 <1>         0.026573 
     21 H          -3.069924    1.059506    0.091599 H         1 <1>         0.026573 
     22 H          -3.244187   -1.122868    1.278927 H         1 <1>         0.027089 
     23 H          -1.656469   -0.862021    2.053463 H         1 <1>         0.027089 
     24 H          -2.135107   -1.106181   -0.980858 H         1 <1>         0.034310 
     25 H          -0.975877   -3.304680   -0.788113 H         1 <1>         0.023544 
     26 H          -2.480798   -3.262106    0.161175 H         1 <1>         0.023544 
     27 H          -0.914219   -3.119942    0.997634 H         1 <1>         0.023544 
     28 H           3.997751    1.312788   -1.777764 H         1 <1>         0.027445 
     29 H           4.115587    1.656244   -0.026265 H         1 <1>         0.027445 
     30 H           3.320591    2.821887   -1.114921 H         1 <1>         0.027445 
@<TRIPOS>BOND
     1    1    2 1    
     2    1    6 1    
     3    1    7 1    
     4    1   13 1    
     5    2    3 2    
     6    2   10 1    
     7    3    4 1    
     8    3   14 1    
     9    4    5 1    
    10    4   15 1    
    11    4   16 1    
    12    5    6 2    
    13    5   12 1    
    14    6   17 1    
    15    7    8 1    
    16    7   18 1    
    17    7   19 1    
    18    8    9 1    
    19    8   20 1    
    20    8   21 1    
    21    9   10 1    
    22    9   22 1    
    23    9   23 1    
    24   10   11 1    
    25   10   24 1    
    26   11   25 1    
    27   11   26 1    
    28   11   27 1    
    29   12   28 1    
    30   12   29 1    
    31   12   30 1    
@<TRIPOS>SUBSTRUCTURE
     1 ****        1 TEMP              0 ****  ****    0 ROOT 
@<TRIPOS>NORMAL
@<TRIPOS>FF_PBC
FORCE_FIELD_SETUP_FEATURE Force Field Setup information
v1.0  0 0.000000 0.000000 0.000000 0.000000 0.000000 0.000000 NONE 0 0 0 0 1 0 0 0 0 0 0 0 0
