@<TRIPOS>MOLECULE
MOL008048
   47    47     1     1     0
SMALL
GASTEIGER


@<TRIPOS>ATOM
      1 O           1.454107    0.349339    1.486066 O.3       1 <1>        -0.359270 
      2 O           3.009897   -4.817644   -1.219084 O.3       1 <1>        -0.390745 
      3 O          -6.970752   -1.603975   -1.072323 O.3       1 <1>        -0.327929 
      4 O          -6.968077    0.519797   -0.423905 O.2       1 <1>        -0.260082 
      5 C          -0.671759   -0.901178    1.191422 C.ar      1 <1>        -0.013101 
      6 C          -0.567275    1.594365    0.937346 C.ar      1 <1>        -0.013102 
      7 C           0.089898    0.371470    1.206005 C.ar      1 <1>         0.079525 
      8 C           0.049214   -2.219577    1.504547 C.3       1 <1>        -0.006704 
      9 C           0.205595    2.918994    0.967944 C.3       1 <1>        -0.006784 
     10 C          -2.044196   -0.890204    0.892224 C.ar      1 <1>        -0.048653 
     11 C          -2.745563    0.382824    0.582993 C.ar      1 <1>        -0.024160 
     12 C          -2.016054    1.589467    0.619380 C.ar      1 <1>        -0.048653 
     13 C           0.548927   -2.798459    0.201725 C.2       1 <1>        -0.078490 
     14 C           0.837737    3.110552   -0.391642 C.2       1 <1>        -0.080898 
     15 C           1.829429   -3.048571   -0.121172 C.2       1 <1>        -0.051185 
     16 C           2.131177    3.327534   -0.690391 C.2       1 <1>        -0.079307 
     17 C          -4.219007    0.440207    0.230965 C.2       1 <1>        -0.048924 
     18 C           2.200392   -3.651401   -1.460042 C.3       1 <1>         0.065055 
     19 C           2.990711   -2.763436    0.805569 C.3       1 <1>        -0.041633 
     20 C           2.568098    3.447911   -2.136118 C.3       1 <1>        -0.044040 
     21 C           3.255186    3.462066    0.316790 C.3       1 <1>        -0.044040 
     22 C          -4.918865   -0.596397   -0.250579 C.2       1 <1>         0.010297 
     23 C          -6.353518   -0.523341   -0.587641 C.2       1 <1>         0.284026 
     24 H           0.838749   -2.039352    2.245943 H         1 <1>         0.035641 
     25 H          -0.652483   -2.935830    1.959375 H         1 <1>         0.035641 
     26 H          -0.486478    3.755022    1.152126 H         1 <1>         0.035640 
     27 H           0.900525    2.878226    1.815347 H         1 <1>         0.035640 
     28 H          -2.586486   -1.827301    0.896534 H         1 <1>         0.062704 
     29 H          -2.515187    2.528539    0.404644 H         1 <1>         0.062704 
     30 H          -0.236410   -3.024307   -0.520425 H         1 <1>         0.057551 
     31 H           0.118889    3.053821   -1.210518 H         1 <1>         0.057472 
     32 H          -4.731290    1.391774    0.372883 H         1 <1>         0.062525 
     33 H           1.951864    0.750866    0.782546 H         1 <1>         0.217336 
     34 H           1.313413   -3.935668   -2.051741 H         1 <1>         0.060379 
     35 H           2.768792   -2.897968   -2.031253 H         1 <1>         0.060379 
     36 H           2.934580   -1.751293    1.226304 H         1 <1>         0.027507 
     37 H           2.988618   -3.497784    1.624600 H         1 <1>         0.027507 
     38 H           3.953226   -2.839265    0.277368 H         1 <1>         0.027507 
     39 H           1.755609    3.270419   -2.856825 H         1 <1>         0.027427 
     40 H           2.966187    4.457643   -2.317416 H         1 <1>         0.027427 
     41 H           3.362458    2.713609   -2.338733 H         1 <1>         0.027427 
     42 H           2.932820    3.659407    1.345901 H         1 <1>         0.027427 
     43 H           3.854168    2.539659    0.308401 H         1 <1>         0.027427 
     44 H           3.910949    4.296690    0.026009 H         1 <1>         0.027427 
     45 H          -4.455029   -1.562752   -0.431534 H         1 <1>         0.067729 
     46 H           3.310843   -5.239888   -2.018531 H         1 <1>         0.209834 
     47 H          -7.891427   -1.444513   -1.250788 H         1 <1>         0.220537 
@<TRIPOS>BOND
     1    7    1 1    
     2    1   33 1    
     3   18    2 1    
     4    2   46 1    
     5   23    3 1    
     6    3   47 1    
     7   23    4 2    
     8    5    7 1    
     9    5    8 1    
    10   10    5 2    
    11    6    7 2    
    12    6    9 1    
    13   12    6 1    
    14    8   13 1    
    15    8   24 1    
    16    8   25 1    
    17    9   14 1    
    18    9   26 1    
    19    9   27 1    
    20   11   10 1    
    21   10   28 1    
    22   11   12 2    
    23   17   11 1    
    24   12   29 1    
    25   13   15 2    
    26   13   30 1    
    27   14   16 2    
    28   14   31 1    
    29   15   18 1    
    30   15   19 1    
    31   16   20 1    
    32   16   21 1    
    33   22   17 2    
    34   17   32 1    
    35   18   34 1    
    36   18   35 1    
    37   19   36 1    
    38   19   37 1    
    39   19   38 1    
    40   20   39 1    
    41   20   40 1    
    42   20   41 1    
    43   21   42 1    
    44   21   43 1    
    45   21   44 1    
    46   22   23 1    
    47   22   45 1    
@<TRIPOS>SUBSTRUCTURE
     1 ****        1 TEMP              0 ****  ****    0 ROOT 
@<TRIPOS>NORMAL
@<TRIPOS>FF_PBC
FORCE_FIELD_SETUP_FEATURE Force Field Setup information
v1.0  0 0.000000 0.000000 0.000000 0.000000 0.000000 0.000000 NONE 0 0 0 0 1 0 0 0 0 0 0 0 0
