@<TRIPOS>MOLECULE
MOL004174
   39    40     1     1     0
SMALL
GASTEIGER


@<TRIPOS>ATOM
      1 C          -0.603932   -2.352543    1.105846 C.3       1 <1>        -0.031456 
      2 C          -1.838104   -1.785531    0.359912 C.3       1 <1>        -0.046004 
      3 C          -1.770636   -0.230108    0.285417 C.3       1 <1>        -0.034759 
      4 C          -0.423985    0.223786   -0.391057 C.3       1 <1>        -0.027781 
      5 C           0.570854   -0.939852   -0.688129 C.3       1 <1>        -0.016491 
      6 C           0.690145   -1.787702    0.564978 C.2       1 <1>        -0.073225 
      7 C          -0.673484    1.048484   -1.684749 C.3       1 <1>        -0.028355 
      8 C           0.647975    1.536656   -2.231897 C.2       1 <1>        -0.076299 
      9 C           1.658131    0.456203   -2.535195 C.3       1 <1>        -0.031439 
     10 C           1.907689   -0.373253   -1.249214 C.3       1 <1>        -0.042567 
     11 C           1.840479   -2.052368    1.200903 C.2       1 <1>        -0.099175 
     12 C           0.908062    2.836864   -2.428349 C.2       1 <1>        -0.099438 
     13 C          -2.009235    0.494319    1.659444 C.3       1 <1>        -0.043598 
     14 C          -2.218761    2.027251    1.457836 C.3       1 <1>        -0.062405 
     15 C          -3.236975   -0.057807    2.443811 C.3       1 <1>        -0.062405 
     16 H           0.129987    0.871705    0.306517 H         1 <1>         0.031227 
     17 H           0.174864   -1.584944   -1.488038 H         1 <1>         0.034846 
     18 H          -0.587230   -3.449617    1.003116 H         1 <1>         0.031008 
     19 H          -0.682017   -2.111439    2.177620 H         1 <1>         0.031008 
     20 H          -1.865513   -2.196156   -0.662337 H         1 <1>         0.027113 
     21 H          -2.764913   -2.144794    0.830657 H         1 <1>         0.027113 
     22 H          -2.623136    0.055575   -0.354403 H         1 <1>         0.030630 
     23 H          -1.158104    0.412071   -2.441557 H         1 <1>         0.031284 
     24 H          -1.351370    1.889490   -1.470714 H         1 <1>         0.031284 
     25 H           2.614438    0.870833   -2.893927 H         1 <1>         0.031008 
     26 H           1.253507   -0.190590   -3.330055 H         1 <1>         0.031008 
     27 H           2.387940    0.277739   -0.500401 H         1 <1>         0.027408 
     28 H           2.597314   -1.199078   -1.492281 H         1 <1>         0.027408 
     29 H           1.835837   -2.672908    2.096731 H         1 <1>         0.053449 
     30 H           2.813902   -1.685071    0.884160 H         1 <1>         0.053449 
     31 H           1.867097    3.172324   -2.821101 H         1 <1>         0.053440 
     32 H           0.171332    3.607042   -2.202869 H         1 <1>         0.053440 
     33 H          -1.123249    0.354248    2.302502 H         1 <1>         0.029823 
     34 H          -1.363800    2.513863    0.968931 H         1 <1>         0.023242 
     35 H          -2.358987    2.528975    2.427992 H         1 <1>         0.023242 
     36 H          -3.114853    2.209728    0.845035 H         1 <1>         0.023242 
     37 H          -3.047513   -1.067084    2.837946 H         1 <1>         0.023242 
     38 H          -3.465736    0.578317    3.312887 H         1 <1>         0.023242 
     39 H          -4.125219   -0.084327    1.794031 H         1 <1>         0.023242 
@<TRIPOS>BOND
     1    1    2 1    
     2    1    6 1    
     3    1   18 1    
     4    1   19 1    
     5    2    3 1    
     6    2   20 1    
     7    2   21 1    
     8    3    4 1    
     9    3   13 1    
    10    3   22 1    
    11    4    5 1    
    12    4    7 1    
    13    4   16 1    
    14    5    6 1    
    15    5   10 1    
    16    5   17 1    
    17    6   11 2    
    18    7    8 1    
    19    7   23 1    
    20    7   24 1    
    21    8    9 1    
    22    8   12 2    
    23    9   10 1    
    24    9   25 1    
    25    9   26 1    
    26   10   27 1    
    27   10   28 1    
    28   11   29 1    
    29   11   30 1    
    30   12   31 1    
    31   12   32 1    
    32   13   14 1    
    33   13   15 1    
    34   13   33 1    
    35   14   34 1    
    36   14   35 1    
    37   14   36 1    
    38   15   37 1    
    39   15   38 1    
    40   15   39 1    
@<TRIPOS>SUBSTRUCTURE
     1 ****        1 TEMP              0 ****  ****    0 ROOT 
@<TRIPOS>NORMAL
@<TRIPOS>FF_PBC
FORCE_FIELD_SETUP_FEATURE Force Field Setup information
v1.0  0 0.000000 0.000000 0.000000 0.000000 0.000000 0.000000 NONE 0 0 0 0 1 0 0 0 0 0 0 0 0
