@<TRIPOS>MOLECULE
MOL013382
   35    37     1     1     0
SMALL
GASTEIGER


@<TRIPOS>ATOM
      1 C          -0.320311    0.634045   -2.556509 C.2       1 <1>         0.291587 
      2 C          -1.708575    0.605952   -3.033085 C.2       1 <1>         0.010952 
      3 C          -2.716846    0.205211   -2.253079 C.2       1 <1>        -0.046434 
      4 C          -2.409102   -0.245735   -0.837538 C.ar      1 <1>         0.006194 
      5 C          -0.966061   -0.186482   -0.410452 C.ar      1 <1>         0.099257 
      6 O          -0.002833    0.290593   -1.309031 O.3       1 <1>        -0.273433 
      7 C          -0.709269   -0.473839    0.475180 C.ar      1 <1>         0.016229 
      8 C          -1.772019   -0.946711    1.433386 C.ar      1 <1>         0.081562 
      9 C          -2.673987   -0.984994    1.156790 C.ar      1 <1>        -0.030704 
     10 C          -3.063432   -0.555594   -0.229115 C.ar      1 <1>        -0.049653 
     11 O           0.567635    0.982618   -3.315624 O.2       1 <1>        -0.259479 
     12 O          -1.392302   -1.329973    2.731389 O.3       1 <1>        -0.347557 
     13 C          -1.749489   -0.434009    3.800606 C.3       1 <1>         0.043039 
     14 C           0.740684   -0.489516    1.024145 C.3       1 <1>         0.006352 
     15 O           3.144516   -0.574830    0.536819 O.3       1 <1>        -0.364987 
     16 C           1.863377   -0.770347   -0.014268 C.3       1 <1>         0.091947 
     17 C           2.875859    0.381119   -0.456429 C.3       1 <1>         0.090742 
     18 C           3.607590    0.175999   -1.804171 C.3       1 <1>        -0.033610 
     19 C           2.662662    1.823963    0.064867 C.3       1 <1>        -0.033610 
     20 H          -1.895703    0.926314   -4.057469 H         1 <1>         0.067748 
     21 H          -3.729412    0.214229   -2.663455 H         1 <1>         0.062606 
     22 H          -3.475891   -1.336548    1.804604 H         1 <1>         0.064356 
     23 H          -4.123559   -0.623756   -0.475344 H         1 <1>         0.062503 
     24 H          -1.307348   -0.816118    4.732766 H         1 <1>         0.052870 
     25 H          -2.840815   -0.375226    3.936732 H         1 <1>         0.052870 
     26 H          -1.354878    0.576789    3.611496 H         1 <1>         0.052870 
     27 H           0.835607   -1.310262    1.750863 H         1 <1>         0.034080 
     28 H           0.892373    0.452877    1.567108 H         1 <1>         0.034080 
     29 H           1.835844   -1.702335   -0.600049 H         1 <1>         0.062798 
     30 H           4.622069    0.591998   -1.727513 H         1 <1>         0.025804 
     31 H           3.058872    0.713412   -2.588603 H         1 <1>         0.025804 
     32 H           3.683592   -0.884947   -2.082324 H         1 <1>         0.025804 
     33 H           3.419596    2.490446   -0.375821 H         1 <1>         0.025804 
     34 H           1.663747    2.178192   -0.231432 H         1 <1>         0.025804 
     35 H           2.764559    1.874500    1.160715 H         1 <1>         0.025804 
@<TRIPOS>BOND
     1    1    2 1    
     2    1    6 1    
     3    1   11 2    
     4    2    3 2    
     5    2   20 1    
     6    3    4 1    
     7    3   21 1    
     8    4    5 1    
     9    4   10 2    
    10    5    6 1    
    11    5    7 2    
    12    7    8 1    
    13    7   14 1    
    14    8    9 2    
    15    8   12 1    
    16    9   10 1    
    17    9   22 1    
    18   10   23 1    
    19   12   13 1    
    20   13   24 1    
    21   13   25 1    
    22   13   26 1    
    23   14   16 1    
    24   14   27 1    
    25   14   28 1    
    26   16   15 1    
    27   15   17 1    
    28   16   17 1    
    29   16   29 1    
    30   17   18 1    
    31   17   19 1    
    32   18   30 1    
    33   18   31 1    
    34   18   32 1    
    35   19   33 1    
    36   19   34 1    
    37   19   35 1    
@<TRIPOS>SUBSTRUCTURE
     1 ****        1 TEMP              0 ****  ****    0 ROOT 
@<TRIPOS>NORMAL
@<TRIPOS>FF_PBC
FORCE_FIELD_SETUP_FEATURE Force Field Setup information
v1.0  0 0.000000 0.000000 0.000000 0.000000 0.000000 0.000000 NONE 0 0 0 0 1 0 0 0 0 0 0 0 0
