@<TRIPOS>MOLECULE
MOL002931
   51    54     1     1     0
SMALL
GASTEIGER


@<TRIPOS>ATOM
      1 C           1.352346   -1.684140    1.440371 C.ar      1 <1>         0.084484 
      2 C           0.972749   -1.270340    0.074834 C.ar      1 <1>         0.098982 
      3 C           1.375839   -3.173082    1.675785 C.2       1 <1>         0.193594 
      4 C           1.656641   -0.720818    2.417145 C.ar      1 <1>         0.118241 
      5 O           0.632386   -2.225128   -0.883849 O.3       1 <1>        -0.307709 
      6 C           0.943741    0.082713   -0.269680 C.ar      1 <1>         0.002379 
      7 C           0.887293   -4.030206    0.586344 C.2       1 <1>         0.016920 
      8 O           1.768008   -3.666530    2.720504 O.2       1 <1>        -0.287016 
      9 C           1.586986    0.721695    2.066874 C.ar      1 <1>         0.133671 
     10 O           2.015307   -1.119415    3.705495 O.3       1 <1>        -0.356594 
     11 C           0.537506   -3.537561   -0.612754 C.2       1 <1>         0.093865 
     12 C           1.243001    1.122495    0.747661 C.ar      1 <1>         0.114113 
     13 O           1.859740    1.672484    3.052591 O.3       1 <1>        -0.355372 
     14 C          -0.007728   -4.401744   -1.733890 C.ar      1 <1>         0.005751 
     15 O           1.189791    2.489559    0.438927 O.3       1 <1>        -0.309804 
     16 C          -0.809833   -3.729635   -2.786913 C.ar      1 <1>        -0.049682 
     17 C           0.199476   -5.802817   -1.834683 C.ar      1 <1>        -0.049682 
     18 C           0.254095    2.993550   -0.534124 C.3       1 <1>         0.194267 
     19 C          -1.373074   -4.458654   -3.843408 C.ar      1 <1>        -0.031304 
     20 C          -0.401142   -6.574815   -2.950292 C.ar      1 <1>        -0.031304 
     21 O           0.407292    4.421263   -0.614111 O.3       1 <1>        -0.332332 
     22 C          -1.221076    2.624607   -0.222745 C.3       1 <1>         0.134537 
     23 C          -1.180469   -5.923348   -3.929155 C.ar      1 <1>         0.072619 
     24 C           0.093825    5.098820    0.621252 C.3       1 <1>         0.174389 
     25 C          -1.628820    3.275159    1.120584 C.3       1 <1>         0.114509 
     26 O          -2.051672    3.048889   -1.323118 O.3       1 <1>        -0.384091 
     27 O          -1.775038   -6.627131   -4.978726 O.3       1 <1>        -0.359832 
     28 C          -1.365261    4.805469    1.062645 C.3       1 <1>         0.119030 
     29 C           1.127718    4.870261    1.701566 C.2       1 <1>         0.291467 
     30 O          -0.897289    2.616598    2.172930 O.3       1 <1>        -0.386388 
     31 O          -2.254652    5.442883    0.121699 O.3       1 <1>        -0.386033 
     32 O           2.383550    5.205313    1.385725 O.3       1 <1>        -0.329249 
     33 O           0.842228    4.419398    2.800255 O.2       1 <1>        -0.262180 
     34 H           0.691728    0.344793   -1.288947 H         1 <1>         0.067041 
     35 H           0.815585   -5.088397    0.823100 H         1 <1>         0.068219 
     36 H           2.165048   -0.373767    4.278694 H         1 <1>         0.217446 
     37 H           1.510022    2.526454    2.815892 H         1 <1>         0.217502 
     38 H          -0.969418   -2.656977   -2.745653 H         1 <1>         0.062503 
     39 H           0.796733   -6.335919   -1.105938 H         1 <1>         0.062503 
     40 H           0.505815    2.630924   -1.540919 H         1 <1>         0.094174 
     41 H          -1.955276   -3.952740   -4.606901 H         1 <1>         0.064339 
     42 H          -0.236187   -7.646427   -3.002873 H         1 <1>         0.064339 
     43 H          -1.315902    1.531600   -0.113437 H         1 <1>         0.067108 
     44 H           0.150728    6.174842    0.397358 H         1 <1>         0.072940 
     45 H          -2.704371    3.095454    1.288164 H         1 <1>         0.064771 
     46 H          -2.976790    2.864545   -1.198637 H         1 <1>         0.210111 
     47 H          -1.743734   -7.572072   -4.878080 H         1 <1>         0.217313 
     48 H          -1.542371    5.256043    2.054237 H         1 <1>         0.065129 
     49 H          -1.079287    2.966740    3.040238 H         1 <1>         0.210005 
     50 H          -3.177630    5.345864    0.334866 H         1 <1>         0.210020 
     51 H           2.995536    5.012819    2.088150 H         1 <1>         0.220293 
@<TRIPOS>BOND
     1    1    2 1    
     2    1    3 1    
     3    1    4 2    
     4    2    5 1    
     5    2    6 2    
     6    3    7 1    
     7    3    8 2    
     8    4    9 1    
     9    4   10 1    
    10    5   11 1    
    11    6   12 1    
    12    6   34 1    
    13    7   11 2    
    14    7   35 1    
    15    9   12 2    
    16    9   13 1    
    17   10   36 1    
    18   11   14 1    
    19   12   15 1    
    20   13   37 1    
    21   14   16 1    
    22   14   17 2    
    23   15   18 1    
    24   16   19 2    
    25   16   38 1    
    26   17   20 1    
    27   17   39 1    
    28   18   21 1    
    29   18   22 1    
    30   18   40 1    
    31   19   23 1    
    32   19   41 1    
    33   20   23 2    
    34   20   42 1    
    35   21   24 1    
    36   22   25 1    
    37   22   26 1    
    38   22   43 1    
    39   23   27 1    
    40   24   28 1    
    41   24   29 1    
    42   24   44 1    
    43   25   28 1    
    44   25   30 1    
    45   25   45 1    
    46   26   46 1    
    47   27   47 1    
    48   28   31 1    
    49   28   48 1    
    50   29   32 1    
    51   29   33 2    
    52   30   49 1    
    53   31   50 1    
    54   32   51 1    
@<TRIPOS>SUBSTRUCTURE
     1 ****        1 TEMP              0 ****  ****    0 ROOT 
@<TRIPOS>NORMAL
@<TRIPOS>FF_PBC
FORCE_FIELD_SETUP_FEATURE Force Field Setup information
v1.0  0 0.000000 0.000000 0.000000 0.000000 0.000000 0.000000 NONE 0 0 0 0 1 0 0 0 0 0 0 0 0
