@<TRIPOS>MOLECULE
MOL004986
   56    59     1     1     0
SMALL
GASTEIGER


@<TRIPOS>ATOM
      1 C           2.257092   -4.045894   -1.035511 C.3       1 <1>         0.041476 
      2 C           2.354289   -5.530153   -1.246451 C.2       1 <1>         0.168428 
      3 C           0.864616   -3.706680   -0.440491 C.3       1 <1>         0.097160 
      4 C           1.094479   -6.284052   -1.600696 C.ar      1 <1>         0.047604 
      5 O          -0.180777   -4.152438   -1.324492 O.3       1 <1>        -0.335670 
      6 C          -0.176046   -5.518493   -1.620943 C.ar      1 <1>         0.089874 
      7 C           1.103111   -7.596694   -1.889741 C.ar      1 <1>        -0.046345 
      8 C          -0.168462   -8.282025   -2.222934 C.ar      1 <1>        -0.031116 
      9 C          -1.324031   -6.140566   -1.926969 C.ar      1 <1>        -0.001193 
     10 C          -1.329018   -7.593280   -2.239007 C.ar      1 <1>         0.075065 
     11 O          -2.515362   -8.260830   -2.545247 O.3       1 <1>        -0.359749 
     12 C           0.767050   -2.187831   -0.233161 C.ar      1 <1>        -0.017820 
     13 C           0.716998   -1.599806    1.128691 C.ar      1 <1>        -0.053652 
     14 C           0.701631   -0.209301    1.297538 C.ar      1 <1>        -0.031231 
     15 C           0.761540    0.700281    0.129801 C.ar      1 <1>         0.079484 
     16 C           0.751510    0.141499   -1.159963 C.ar      1 <1>        -0.031231 
     17 C           0.734303   -1.330358   -1.340238 C.ar      1 <1>        -0.053652 
     18 C           0.322772    3.118900   -0.478710 C.3       1 <1>         0.195889 
     19 O           0.879989    2.079298    0.351491 O.3       1 <1>        -0.312466 
     20 C           1.343443    4.283531   -0.452157 C.3       1 <1>         0.132495 
     21 C           1.427351    4.867945    0.980043 C.3       1 <1>         0.092996 
     22 C          -0.000459    5.313768    1.397692 C.3       1 <1>         0.036480 
     23 C          -0.965299    4.097908    1.298419 C.3       1 <1>         0.175873 
     24 O          -0.976314    3.540943   -0.027977 O.3       1 <1>        -0.318853 
     25 O           0.969955    5.300883   -1.402839 O.3       1 <1>        -0.384172 
     26 O           2.368306    5.959602    0.927524 O.3       1 <1>        -0.388625 
     27 O          -2.280660    4.612433    1.569199 O.3       1 <1>        -0.284609 
     28 O           3.429570   -6.100995   -1.138177 O.2       1 <1>        -0.291871 
     29 C          -0.037809    5.919382    2.830685 C.3       1 <1>        -0.055322 
     30 C          -3.245268    3.687472    1.642102 C.2       1 <1>         0.261284 
     31 C          -4.623574    4.241279    1.880420 C.3       1 <1>         0.021514 
     32 O          -3.051411    2.486339    1.526099 O.2       1 <1>        -0.265202 
     33 H           3.054010   -3.704933   -0.354798 H         1 <1>         0.037398 
     34 H           2.390778   -3.556726   -2.012463 H         1 <1>         0.037398 
     35 H           0.744978   -4.220534    0.529842 H         1 <1>         0.065571 
     36 H           2.033022   -8.159275   -1.880441 H         1 <1>         0.062610 
     37 H          -0.166245   -9.342671   -2.454172 H         1 <1>         0.064341 
     38 H          -2.245483   -5.571302   -1.944508 H         1 <1>         0.066929 
     39 H          -3.291445   -7.719316   -2.458099 H         1 <1>         0.217315 
     40 H           0.688582   -2.246223    1.999538 H         1 <1>         0.062190 
     41 H           0.651307    0.216017    2.293069 H         1 <1>         0.064339 
     42 H           0.787979    0.753075   -2.050766 H         1 <1>         0.064339 
     43 H           0.718261   -1.740909   -2.345579 H         1 <1>         0.062190 
     44 H           0.212124    2.844328   -1.534888 H         1 <1>         0.094243 
     45 H           2.335900    3.880982   -0.728151 H         1 <1>         0.067029 
     46 H           1.794287    4.088014    1.671904 H         1 <1>         0.062499 
     47 H          -0.348079    6.084381    0.687263 H         1 <1>         0.037313 
     48 H          -0.681712    3.335483    2.043620 H         1 <1>         0.091926 
     49 H           1.566279    6.043718   -1.369122 H         1 <1>         0.210109 
     50 H           2.562515    6.343259    1.776270 H         1 <1>         0.209905 
     51 H          -1.071675    6.172086    3.116198 H         1 <1>         0.023480 
     52 H           0.552361    6.846165    2.889791 H         1 <1>         0.023480 
     53 H           0.359440    5.196708    3.560036 H         1 <1>         0.023480 
     54 H          -5.153870    3.632350    2.626643 H         1 <1>         0.033024 
     55 H          -4.565257    5.277148    2.248710 H         1 <1>         0.033024 
     56 H          -5.187916    4.228383    0.936688 H         1 <1>         0.033024 
@<TRIPOS>BOND
     1    1    2 1    
     2    1    3 1    
     3    1   33 1    
     4    1   34 1    
     5    2    4 1    
     6    2   28 2    
     7    3    5 1    
     8    3   12 1    
     9    3   35 1    
    10    4    6 1    
    11    4    7 2    
    12    5    6 1    
    13    6    9 2    
    14    7    8 1    
    15    7   36 1    
    16    8   10 2    
    17    8   37 1    
    18    9   10 1    
    19    9   38 1    
    20   10   11 1    
    21   11   39 1    
    22   12   13 1    
    23   12   17 2    
    24   13   14 2    
    25   13   40 1    
    26   14   15 1    
    27   14   41 1    
    28   15   16 2    
    29   15   19 1    
    30   16   17 1    
    31   16   42 1    
    32   17   43 1    
    33   19   18 1    
    34   18   20 1    
    35   18   24 1    
    36   18   44 1    
    37   20   21 1    
    38   20   25 1    
    39   20   45 1    
    40   21   22 1    
    41   21   26 1    
    42   21   46 1    
    43   22   23 1    
    44   22   29 1    
    45   22   47 1    
    46   23   24 1    
    47   23   27 1    
    48   23   48 1    
    49   25   49 1    
    50   26   50 1    
    51   27   30 1    
    52   29   51 1    
    53   29   52 1    
    54   29   53 1    
    55   30   31 1    
    56   30   32 2    
    57   31   54 1    
    58   31   55 1    
    59   31   56 1    
@<TRIPOS>SUBSTRUCTURE
     1 ****        1 TEMP              0 ****  ****    0 ROOT 
@<TRIPOS>NORMAL
@<TRIPOS>FF_PBC
FORCE_FIELD_SETUP_FEATURE Force Field Setup information
v1.0  0 0.000000 0.000000 0.000000 0.000000 0.000000 0.000000 NONE 0 0 0 0 1 0 0 0 0 0 0 0 0
