@<TRIPOS>MOLECULE
MOL002141
   55    58     1     1     0
SMALL
GASTEIGER


@<TRIPOS>ATOM
      1 C          -0.538522   -0.010781   -0.677139 C.3       1 <1>        -0.028547 
      2 C           0.374350   -0.778819    0.328333 C.3       1 <1>        -0.030642 
      3 C          -1.974513   -0.657538   -0.792701 C.3       1 <1>        -0.007820 
      4 C          -0.535509    1.533087   -0.407801 C.3       1 <1>        -0.048633 
      5 C           1.768809   -0.096593    0.397561 C.3       1 <1>        -0.031582 
      6 C           0.541324   -2.246269   -0.141476 C.3       1 <1>        -0.031102 
      7 C          -1.862268   -2.177105   -0.910624 C.2       1 <1>        -0.064841 
      8 C          -2.682481   -0.093337   -2.070948 C.3       1 <1>        -0.041314 
      9 C          -2.855884   -0.351013    0.462412 C.3       1 <1>        -0.055578 
     10 C           0.891054    2.140220   -0.260714 C.3       1 <1>        -0.046432 
     11 C           1.704687    1.387904    0.830813 C.3       1 <1>        -0.019477 
     12 C           2.840316   -0.706765    1.329641 C.3       1 <1>        -0.048772 
     13 C          -0.746771   -2.860603   -0.612711 C.2       1 <1>        -0.083874 
     14 C          -3.091016   -2.936866   -1.385058 C.3       1 <1>        -0.005079 
     15 C          -3.978481   -0.843584   -2.474200 C.3       1 <1>        -0.025766 
     16 C           3.224813    1.717109    0.856009 C.3       1 <1>         0.022874 
     17 C           3.865203    0.454991    1.520780 C.3       1 <1>        -0.042733 
     18 C          -3.666458   -2.342629   -2.689622 C.3       1 <1>         0.058951 
     19 C           3.559535    3.092771    1.394559 C.2       1 <1>         0.133891 
     20 O          -4.863298   -3.067667   -3.025644 O.3       1 <1>        -0.391474 
     21 O           3.333641    4.082445    0.716491 O.2       1 <1>        -0.297390 
     22 C           4.187455    3.239412    2.757632 C.3       1 <1>        -0.005766 
     23 C           1.106026    1.636894    2.254714 C.3       1 <1>        -0.058657 
     24 H          -0.071407   -0.794548    1.331080 H         1 <1>         0.030949 
     25 H          -0.042239   -0.141016   -1.653659 H         1 <1>         0.031195 
     26 H           2.193669   -0.145060   -0.621769 H         1 <1>         0.030907 
     27 H          -1.021326    2.064446   -1.240807 H         1 <1>         0.026846 
     28 H          -1.098549    1.778813    0.499547 H         1 <1>         0.026846 
     29 H           0.960364   -2.848708    0.681285 H         1 <1>         0.031025 
     30 H           1.233551   -2.309557   -0.995831 H         1 <1>         0.031025 
     31 H          -2.949928    0.965694   -1.934521 H         1 <1>         0.027446 
     32 H          -1.998739   -0.157653   -2.933027 H         1 <1>         0.027446 
     33 H          -2.355946   -0.651646    1.391984 H         1 <1>         0.023820 
     34 H          -3.815909   -0.879877    0.442176 H         1 <1>         0.023820 
     35 H          -3.105990    0.716126    0.532776 H         1 <1>         0.023820 
     36 H           1.400220    2.067725   -1.235717 H         1 <1>         0.027088 
     37 H           0.826174    3.210384   -0.004671 H         1 <1>         0.027088 
     38 H           3.305189   -1.606602    0.893057 H         1 <1>         0.026839 
     39 H           2.370793   -0.998662    2.283081 H         1 <1>         0.026839 
     40 H          -0.724931   -3.946936   -0.714730 H         1 <1>         0.057190 
     41 H          -2.873362   -3.996890   -1.592864 H         1 <1>         0.033510 
     42 H          -3.867735   -2.929544   -0.607643 H         1 <1>         0.033510 
     43 H          -4.370189   -0.418347   -3.413638 H         1 <1>         0.029039 
     44 H          -4.763762   -0.731954   -1.711442 H         1 <1>         0.029039 
     45 H           3.587204    1.742674   -0.186694 H         1 <1>         0.038259 
     46 H           4.045976    0.581145    2.598423 H         1 <1>         0.027221 
     47 H           4.835565    0.222067    1.050408 H         1 <1>         0.027221 
     48 H          -2.916195   -2.459777   -3.493144 H         1 <1>         0.059621 
     49 H          -5.268178   -2.766034   -3.832688 H         1 <1>         0.209789 
     50 H           3.560198    2.786827    3.538160 H         1 <1>         0.030588 
     51 H           4.310604    4.306320    2.998335 H         1 <1>         0.030588 
     52 H           5.182580    2.770741    2.764297 H         1 <1>         0.030588 
     53 H           1.084151    2.718947    2.453264 H         1 <1>         0.023535 
     54 H           1.701613    1.169119    3.049022 H         1 <1>         0.023535 
     55 H           0.081908    1.265696    2.374829 H         1 <1>         0.023535 
@<TRIPOS>BOND
     1    1    2 1    
     2    1    3 1    
     3    1    4 1    
     4    1   25 1    
     5    2    5 1    
     6    2    6 1    
     7    2   24 1    
     8    3    7 1    
     9    3    8 1    
    10    3    9 1    
    11    4   10 1    
    12    4   27 1    
    13    4   28 1    
    14    5   11 1    
    15    5   12 1    
    16    5   26 1    
    17    6   13 1    
    18    6   29 1    
    19    6   30 1    
    20    7   13 2    
    21    7   14 1    
    22    8   15 1    
    23    8   31 1    
    24    8   32 1    
    25    9   33 1    
    26    9   34 1    
    27    9   35 1    
    28   10   11 1    
    29   10   36 1    
    30   10   37 1    
    31   11   16 1    
    32   11   23 1    
    33   12   17 1    
    34   12   38 1    
    35   12   39 1    
    36   13   40 1    
    37   14   18 1    
    38   14   41 1    
    39   14   42 1    
    40   15   18 1    
    41   15   43 1    
    42   15   44 1    
    43   16   17 1    
    44   16   19 1    
    45   16   45 1    
    46   17   46 1    
    47   17   47 1    
    48   18   20 1    
    49   18   48 1    
    50   19   21 2    
    51   19   22 1    
    52   20   49 1    
    53   22   50 1    
    54   22   51 1    
    55   22   52 1    
    56   23   53 1    
    57   23   54 1    
    58   23   55 1    
@<TRIPOS>SUBSTRUCTURE
     1 ****        1 TEMP              0 ****  ****    0 ROOT 
@<TRIPOS>NORMAL
@<TRIPOS>FF_PBC
FORCE_FIELD_SETUP_FEATURE Force Field Setup information
v1.0  0 0.000000 0.000000 0.000000 0.000000 0.000000 0.000000 NONE 0 0 0 0 1 0 0 0 0 0 0 0 0
