@<TRIPOS>MOLECULE
MOL004989
   46    48     1     1     0
SMALL
GASTEIGER


@<TRIPOS>ATOM
      1 C          -1.837943   -0.459853    1.707760 C.ar      1 <1>         0.080968 
      2 C          -1.687040   -1.584171    0.745050 C.ar      1 <1>         0.016565 
      3 C          -0.723830   -1.495887   -0.279463 C.ar      1 <1>         0.091429 
      4 C           0.105059   -0.263618   -0.409886 C.ar      1 <1>         0.077500 
      5 C          -0.044009    0.786857    0.509893 C.ar      1 <1>         0.092379 
      6 C          -1.033588    0.675459    1.603061 C.ar      1 <1>        -0.000748 
      7 C           1.109527   -0.087138   -1.525463 C.2       1 <1>         0.170915 
      8 C           1.929302    1.172804   -1.585557 C.3       1 <1>         0.041565 
      9 C           1.112361    2.317509   -0.939746 C.3       1 <1>         0.097240 
     10 O           0.726886    1.946086    0.394132 O.3       1 <1>        -0.335584 
     11 C           1.940824    3.610356   -0.891419 C.ar      1 <1>        -0.015388 
     12 O           1.240380   -0.962626   -2.363770 O.2       1 <1>        -0.291783 
     13 C           1.939416    4.530100   -2.056990 C.ar      1 <1>        -0.053499 
     14 C           2.684937    5.715100   -2.023727 C.ar      1 <1>        -0.029068 
     15 C           3.483526    6.062838   -0.826284 C.ar      1 <1>         0.102203 
     16 C           3.491007    5.200318    0.282273 C.ar      1 <1>         0.102525 
     17 C           2.701778    3.941830    0.242767 C.ar      1 <1>        -0.023745 
     18 O          -2.789320   -0.521916    2.722754 O.3       1 <1>        -0.359385 
     19 O           4.220717    7.249759   -0.816836 O.3       1 <1>        -0.357275 
     20 O          -0.566741   -2.562701   -1.170067 O.3       1 <1>        -0.358684 
     21 C          -2.597865   -2.816801    0.876970 C.3       1 <1>        -0.004339 
     22 O           4.245203    5.547000    1.407268 O.3       1 <1>        -0.357268 
     23 C          -1.897763   -4.154243    0.846509 C.2       1 <1>        -0.080815 
     24 C          -2.549396   -5.324027    0.738166 C.2       1 <1>        -0.079306 
     25 C          -1.804446   -6.642618    0.712252 C.3       1 <1>        -0.044040 
     26 C          -4.060264   -5.430457    0.633200 C.3       1 <1>        -0.044040 
     27 H          -1.136450    1.483815    2.318990 H         1 <1>         0.066941 
     28 H           2.171163    1.418547   -2.631429 H         1 <1>         0.037400 
     29 H           2.864226    1.010656   -1.028179 H         1 <1>         0.037400 
     30 H           0.196276    2.510463   -1.523553 H         1 <1>         0.065572 
     31 H           1.359204    4.287358   -2.940714 H         1 <1>         0.062192 
     32 H           2.683919    6.388702   -2.874779 H         1 <1>         0.064413 
     33 H           2.714195    3.275887    1.095971 H         1 <1>         0.064759 
     34 H          -3.641438   -0.271651    2.381332 H         1 <1>         0.217328 
     35 H           4.712630    7.353675   -0.007264 H         1 <1>         0.217422 
     36 H           0.066827   -2.392453   -1.860265 H         1 <1>         0.217354 
     37 H          -3.141933   -2.777421    1.834487 H         1 <1>         0.035721 
     38 H          -3.317173   -2.742480    0.046696 H         1 <1>         0.035721 
     39 H           4.180490    4.921766    2.120282 H         1 <1>         0.217422 
     40 H          -0.808679   -4.145618    0.923266 H         1 <1>         0.057473 
     41 H          -2.200466   -7.319619    1.483522 H         1 <1>         0.027427 
     42 H          -1.934814   -7.113202   -0.274556 H         1 <1>         0.027427 
     43 H          -0.727702   -6.521362    0.897855 H         1 <1>         0.027427 
     44 H          -4.601668   -4.533788    0.966872 H         1 <1>         0.027427 
     45 H          -4.333948   -5.624654   -0.415285 H         1 <1>         0.027427 
     46 H          -4.433021   -6.264480    1.248970 H         1 <1>         0.027427 
@<TRIPOS>BOND
     1    1    2 1    
     2    1    6 2    
     3    1   18 1    
     4    2    3 2    
     5    2   21 1    
     6    3    4 1    
     7    3   20 1    
     8    4    5 2    
     9    4    7 1    
    10    5    6 1    
    11    5   10 1    
    12    6   27 1    
    13    7    8 1    
    14    7   12 2    
    15    8    9 1    
    16    8   28 1    
    17    8   29 1    
    18    9   10 1    
    19    9   11 1    
    20    9   30 1    
    21   11   13 1    
    22   11   17 2    
    23   13   14 2    
    24   13   31 1    
    25   14   15 1    
    26   14   32 1    
    27   15   16 2    
    28   15   19 1    
    29   16   17 1    
    30   16   22 1    
    31   17   33 1    
    32   18   34 1    
    33   19   35 1    
    34   20   36 1    
    35   21   23 1    
    36   21   37 1    
    37   21   38 1    
    38   22   39 1    
    39   23   24 2    
    40   23   40 1    
    41   24   25 1    
    42   24   26 1    
    43   25   41 1    
    44   25   42 1    
    45   25   43 1    
    46   26   44 1    
    47   26   45 1    
    48   26   46 1    
@<TRIPOS>SUBSTRUCTURE
     1 ****        1 TEMP              0 ****  ****    0 ROOT 
@<TRIPOS>NORMAL
@<TRIPOS>FF_PBC
FORCE_FIELD_SETUP_FEATURE Force Field Setup information
v1.0  0 0.000000 0.000000 0.000000 0.000000 0.000000 0.000000 NONE 0 0 0 0 1 0 0 0 0 0 0 0 0
