@<TRIPOS>MOLECULE
MOL004919
   21    21     1     1     0
SMALL
GASTEIGER


@<TRIPOS>ATOM
      1 C           0.742610   -0.033196    0.714561 C.3       1 <1>        -0.043879 
      2 C          -0.572042    0.777181    0.884819 C.3       1 <1>        -0.050459 
      3 C           0.557705   -1.121944   -0.377974 C.3       1 <1>        -0.050459 
      4 C           1.169692   -0.677034    2.061948 C.3       1 <1>        -0.062415 
      5 C          -0.996780    1.419037   -0.461884 C.3       1 <1>        -0.052815 
      6 C           0.130868   -0.480111   -1.723794 C.3       1 <1>        -0.052815 
      7 C          -1.181229    0.326526   -1.546309 C.3       1 <1>        -0.053040 
      8 H           1.543599    0.656560    0.395004 H         1 <1>         0.029813 
      9 H          -1.375104    0.111967    1.242208 H         1 <1>         0.026785 
     10 H          -0.427537    1.571785    1.635738 H         1 <1>         0.026785 
     11 H           1.502566   -1.672242   -0.521178 H         1 <1>         0.026785 
     12 H          -0.211612   -1.842856   -0.056837 H         1 <1>         0.026785 
     13 H           1.318389    0.099503    2.828548 H         1 <1>         0.023242 
     14 H           0.398546   -1.377644    2.418004 H         1 <1>         0.023242 
     15 H           2.114930   -1.228884    1.939817 H         1 <1>         0.023242 
     16 H          -1.942098    1.971470   -0.327833 H         1 <1>         0.026537 
     17 H          -0.226169    2.137164   -0.788029 H         1 <1>         0.026537 
     18 H          -0.018858   -1.269205   -2.479860 H         1 <1>         0.026537 
     19 H           0.929782    0.189238   -2.083594 H         1 <1>         0.026537 
     20 H          -1.996113   -0.354377   -1.249492 H         1 <1>         0.026529 
     21 H          -1.460746    0.796862   -2.503963 H         1 <1>         0.026529 
@<TRIPOS>BOND
     1    1    2 1    
     2    1    3 1    
     3    1    4 1    
     4    1    8 1    
     5    2    5 1    
     6    2    9 1    
     7    2   10 1    
     8    3    6 1    
     9    3   11 1    
    10    3   12 1    
    11    4   13 1    
    12    4   14 1    
    13    4   15 1    
    14    5    7 1    
    15    5   16 1    
    16    5   17 1    
    17    6    7 1    
    18    6   18 1    
    19    6   19 1    
    20    7   20 1    
    21    7   21 1    
@<TRIPOS>SUBSTRUCTURE
     1 ****        1 TEMP              0 ****  ****    0 ROOT 
@<TRIPOS>NORMAL
@<TRIPOS>FF_PBC
FORCE_FIELD_SETUP_FEATURE Force Field Setup information
v1.0  0 0.000000 0.000000 0.000000 0.000000 0.000000 0.000000 NONE 0 0 0 0 1 0 0 0 0 0 0 0 0
