@<TRIPOS>MOLECULE
MOL000259
   25    25     1     1     0
SMALL
GASTEIGER


@<TRIPOS>ATOM
      1 C          -1.827666   -0.002773    0.000010 C.ar      1 <1>         0.075741 
      2 C          -1.814334    1.481519    0.000007 C.ar      1 <1>        -0.020723 
      3 C          -0.581912    2.167625   -0.000016 C.ar      1 <1>        -0.056136 
      4 C           0.698166    1.421682   -0.000033 C.ar      1 <1>        -0.057919 
      5 C           0.706488    0.001272   -0.000019 C.ar      1 <1>        -0.042347 
      6 C          -0.591634   -0.719367   -0.000004 C.ar      1 <1>        -0.028252 
      7 O          -3.051826   -0.678901    0.000025 O.3       1 <1>        -0.359562 
      8 C          -3.119453    2.284818    0.000033 C.3       1 <1>        -0.037274 
      9 C           2.035172   -0.777164   -0.000020 C.3       1 <1>        -0.021434 
     10 C           2.160934   -1.640848   -1.283040 C.3       1 <1>        -0.058649 
     11 C           2.160951   -1.640780    1.283047 C.3       1 <1>        -0.058649 
     12 H          -0.566951    3.252686   -0.000021 H         1 <1>         0.062108 
     13 H           1.628980    1.978796   -0.000049 H         1 <1>         0.062048 
     14 H          -0.602771   -1.802401   -0.000000 H         1 <1>         0.064610 
     15 H          -2.978144   -1.626260   -0.000055 H         1 <1>         0.217325 
     16 H          -4.002965    1.629982   -0.000174 H         1 <1>         0.027833 
     17 H          -3.153619    2.921661    0.896620 H         1 <1>         0.027833 
     18 H          -3.153463    2.922006   -0.896315 H         1 <1>         0.027833 
     19 H           2.877013   -0.063105   -0.000044 H         1 <1>         0.034346 
     20 H           2.060247   -1.002592   -2.174909 H         1 <1>         0.023545 
     21 H           3.144739   -2.134727   -1.315882 H         1 <1>         0.023545 
     22 H           1.383503   -2.417933   -1.319036 H         1 <1>         0.023545 
     23 H           2.060275   -1.002475    2.174882 H         1 <1>         0.023545 
     24 H           3.144756   -2.134658    1.315903 H         1 <1>         0.023545 
     25 H           1.383518   -2.417860    1.319092 H         1 <1>         0.023545 
@<TRIPOS>BOND
     1    1    2 1    
     2    1    6 2    
     3    1    7 1    
     4    2    3 2    
     5    2    8 1    
     6    3    4 1    
     7    3   12 1    
     8    4    5 2    
     9    4   13 1    
    10    5    6 1    
    11    5    9 1    
    12    6   14 1    
    13    7   15 1    
    14    8   16 1    
    15    8   17 1    
    16    8   18 1    
    17    9   10 1    
    18    9   11 1    
    19    9   19 1    
    20   10   20 1    
    21   10   21 1    
    22   10   22 1    
    23   11   23 1    
    24   11   24 1    
    25   11   25 1    
@<TRIPOS>SUBSTRUCTURE
     1 ****        1 TEMP              0 ****  ****    0 ROOT 
@<TRIPOS>NORMAL
@<TRIPOS>FF_PBC
FORCE_FIELD_SETUP_FEATURE Force Field Setup information
v1.0  0 0.000000 0.000000 0.000000 0.000000 0.000000 0.000000 NONE 0 0 0 0 1 0 0 0 0 0 0 0 0
