@<TRIPOS>MOLECULE
MOL000169
   39    40     1     1     0
SMALL
GASTEIGER


@<TRIPOS>ATOM
      1 C           2.292483    0.971652   -0.361625 C.3       1 <1>        -0.022164 
      2 C           3.192117   -0.203437   -0.832138 C.3       1 <1>        -0.043047 
      3 C           2.685694   -1.454859   -0.069309 C.3       1 <1>        -0.030697 
      4 C           1.244870   -1.081669    0.147355 C.2       1 <1>        -0.067172 
      5 C           0.252694   -2.154293    0.527935 C.3       1 <1>        -0.022450 
      6 C          -1.015960   -2.156961   -0.371805 C.3       1 <1>        -0.046208 
      7 C          -1.973352   -0.941821   -0.219471 C.3       1 <1>        -0.045710 
      8 C          -1.406126    0.405716   -0.750096 C.3       1 <1>        -0.016705 
      9 C          -0.263477    0.984585    0.125415 C.3       1 <1>        -0.024713 
     10 C           1.031560    0.224291   -0.016243 C.2       1 <1>        -0.066641 
     11 C          -2.549411    1.402056   -0.897071 C.2       1 <1>        -0.076312 
     12 C          -3.094771    1.669299   -2.092985 C.2       1 <1>        -0.099437 
     13 C          -3.054679    2.079917    0.360743 C.3       1 <1>        -0.043768 
     14 C          -0.053094   -2.091778    2.048310 C.3       1 <1>        -0.058693 
     15 C           2.848833    1.663433    0.909183 C.3       1 <1>        -0.058684 
     16 H           2.149934    1.706445   -1.172850 H         1 <1>         0.034310 
     17 H           3.013618   -0.363954   -1.909905 H         1 <1>         0.027391 
     18 H           4.268008   -0.017828   -0.684645 H         1 <1>         0.027391 
     19 H           3.178118   -1.567944    0.909221 H         1 <1>         0.031033 
     20 H           2.826350   -2.372913   -0.662670 H         1 <1>         0.031033 
     21 H           0.736740   -3.131840    0.352922 H         1 <1>         0.034300 
     22 H          -1.594018   -3.065777   -0.128838 H         1 <1>         0.027107 
     23 H          -0.702026   -2.239062   -1.425815 H         1 <1>         0.027107 
     24 H          -2.300546   -0.848777    0.825810 H         1 <1>         0.027124 
     25 H          -2.871237   -1.170257   -0.819865 H         1 <1>         0.027124 
     26 H          -0.972322    0.220066   -1.747430 H         1 <1>         0.034847 
     27 H          -0.089429    2.021428   -0.203795 H         1 <1>         0.031589 
     28 H          -0.548055    1.018956    1.186617 H         1 <1>         0.031589 
     29 H          -2.746933    1.184954   -3.004847 H         1 <1>         0.053440 
     30 H          -3.910802    2.382597   -2.203901 H         1 <1>         0.053440 
     31 H          -3.990310    2.631214    0.182715 H         1 <1>         0.027436 
     32 H          -2.309911    2.800351    0.728695 H         1 <1>         0.027436 
     33 H          -3.253001    1.342191    1.150712 H         1 <1>         0.027436 
     34 H          -0.773047   -2.876351    2.328248 H         1 <1>         0.023544 
     35 H           0.874708   -2.250295    2.620588 H         1 <1>         0.023544 
     36 H          -0.464748   -1.117052    2.341743 H         1 <1>         0.023544 
     37 H           2.144695    2.434110    1.258835 H         1 <1>         0.023544 
     38 H           3.812613    2.145534    0.684409 H         1 <1>         0.023544 
     39 H           2.999221    0.932468    1.718464 H         1 <1>         0.023544 
@<TRIPOS>BOND
     1    1    2 1    
     2    1   10 1    
     3    1   15 1    
     4    1   16 1    
     5    2    3 1    
     6    2   17 1    
     7    2   18 1    
     8    3    4 1    
     9    3   19 1    
    10    3   20 1    
    11    4    5 1    
    12    4   10 2    
    13    5    6 1    
    14    5   14 1    
    15    5   21 1    
    16    6    7 1    
    17    6   22 1    
    18    6   23 1    
    19    7    8 1    
    20    7   24 1    
    21    7   25 1    
    22    8    9 1    
    23    8   11 1    
    24    8   26 1    
    25    9   10 1    
    26    9   27 1    
    27    9   28 1    
    28   11   12 2    
    29   11   13 1    
    30   12   29 1    
    31   12   30 1    
    32   13   31 1    
    33   13   32 1    
    34   13   33 1    
    35   14   34 1    
    36   14   35 1    
    37   14   36 1    
    38   15   37 1    
    39   15   38 1    
    40   15   39 1    
@<TRIPOS>SUBSTRUCTURE
     1 ****        1 TEMP              0 ****  ****    0 ROOT 
@<TRIPOS>NORMAL
@<TRIPOS>FF_PBC
FORCE_FIELD_SETUP_FEATURE Force Field Setup information
v1.0  0 0.000000 0.000000 0.000000 0.000000 0.000000 0.000000 NONE 0 0 0 0 1 0 0 0 0 0 0 0 0
