@<TRIPOS>MOLECULE
MOL004710
   27    28     1     1     0
SMALL
GASTEIGER


@<TRIPOS>ATOM
      1 C          -0.199038   -0.854135    0.391453 C.ar      1 <1>         0.031343 
      2 N           0.889657   -2.514559   -0.762996 N.ar      1 <1>        -0.210347 
      3 C          -0.287363   -2.185661   -0.054800 C.ar      1 <1>         0.173988 
      4 C           1.108624   -0.340180   -0.068067 C.ar      1 <1>         0.054977 
      5 C          -2.988898    1.698869    1.150068 C.2       1 <1>         0.276864 
      6 C          -1.245677   -0.082530    1.196999 C.3       1 <1>         0.003203 
      7 C           1.756291   -1.440004   -0.799862 C.ar      1 <1>         0.213699 
      8 C          -2.012344    0.923309    0.296794 C.3       1 <1>         0.095596 
      9 O          -4.196625    1.548799    1.050261 O.2       1 <1>        -0.263427 
     10 N          -2.707171    0.245677   -0.822947 N.3       1 <1>        -0.319057 
     11 O          -2.440743    2.548859    2.021569 O.3       1 <1>        -0.330089 
     12 C           1.722605    0.910444    0.092539 C.ar      1 <1>        -0.047855 
     13 C           3.021340   -1.293174   -1.379366 C.ar      1 <1>         0.010278 
     14 C           3.065926    1.093558   -0.513256 C.ar      1 <1>        -0.060779 
     15 C           3.698332    0.020571   -1.230572 C.ar      1 <1>        -0.055507 
     16 H           1.081568   -3.414010   -1.185089 H         1 <1>         0.452859 
     17 H          -1.133419   -2.845279    0.123352 H         1 <1>         0.137875 
     18 H          -1.957082   -0.791187    1.649110 H         1 <1>         0.033532 
     19 H          -0.727208    0.450024    2.010157 H         1 <1>         0.033532 
     20 H          -1.306452    1.655993   -0.128665 H         1 <1>         0.056544 
     21 H          -2.013622   -0.240557   -1.494490 H         1 <1>         0.118930 
     22 H          -3.435788   -0.465237   -0.456217 H         1 <1>         0.118930 
     23 H          -3.102040    3.008393    2.528519 H         1 <1>         0.220259 
     24 H           1.238171    1.713898    0.637090 H         1 <1>         0.062564 
     25 H           3.491946   -2.108612   -1.917819 H         1 <1>         0.068340 
     26 H           3.573333    2.048121   -0.412346 H         1 <1>         0.061781 
     27 H           4.680566    0.170370   -1.668290 H         1 <1>         0.061965 
@<TRIPOS>BOND
     1    1    3 2    
     2    1    4 1    
     3    6    1 1    
     4    3    2 1    
     5    7    2 1    
     6    2   16 1    
     7    3   17 1    
     8    4    7 1    
     9    4   12 2    
    10    8    5 1    
    11    5    9 2    
    12    5   11 1    
    13    6    8 1    
    14    6   18 1    
    15    6   19 1    
    16    7   13 2    
    17    8   10 1    
    18    8   20 1    
    19   10   21 1    
    20   10   22 1    
    21   11   23 1    
    22   12   14 1    
    23   12   24 1    
    24   13   15 1    
    25   13   25 1    
    26   14   15 2    
    27   14   26 1    
    28   15   27 1    
@<TRIPOS>SUBSTRUCTURE
     1 ****        1 TEMP              0 ****  ****    0 ROOT 
@<TRIPOS>NORMAL
@<TRIPOS>FF_PBC
FORCE_FIELD_SETUP_FEATURE Force Field Setup information
v1.0  0 0.000000 0.000000 0.000000 0.000000 0.000000 0.000000 NONE 0 0 0 0 1 0 0 0 0 0 0 0 0
