@<TRIPOS>MOLECULE
MOL005403
   82    86     1     1     0
SMALL
GASTEIGER


@<TRIPOS>ATOM
      1 C          -0.651323    0.263768    1.456365 C.3       1 <1>        -0.023070 
      2 C           0.937388    0.379181    1.204087 C.3       1 <1>        -0.023288 
      3 C          -1.481439    0.943145    0.280411 C.3       1 <1>        -0.029442 
      4 C           1.438740   -0.227155   -0.170010 C.3       1 <1>        -0.031773 
      5 C          -3.068289    0.741501    0.278374 C.3       1 <1>        -0.025409 
      6 C           2.618425    0.547254   -0.893999 C.3       1 <1>        -0.031802 
      7 C          -3.289967   -0.814460    0.205552 C.3       1 <1>        -0.030187 
      8 C           3.600459    1.492793   -0.100567 C.3       1 <1>        -0.028905 
      9 C          -1.108011   -1.233091    1.626735 C.3       1 <1>        -0.046561 
     10 C          -0.792094    0.683516   -1.115635 C.3       1 <1>        -0.048917 
     11 C           1.387420    1.881740    1.225402 C.3       1 <1>        -0.046352 
     12 C           0.260247   -0.447346   -1.174647 C.3       1 <1>        -0.049144 
     13 C          -2.630164   -1.527041    1.430301 C.3       1 <1>        -0.048700 
     14 C           2.924918    2.093826    1.178268 C.3       1 <1>        -0.046840 
     15 C          -4.749323   -1.311004   -0.134478 C.3       1 <1>        -0.031548 
     16 C          -3.767663    1.473722   -0.937702 C.3       1 <1>        -0.047064 
     17 C          -1.002032    0.946395    2.833515 C.3       1 <1>        -0.058784 
     18 C           3.387631   -0.312930   -1.965168 C.3       1 <1>        -0.044261 
     19 C           1.746588   -0.370714    2.329403 C.3       1 <1>        -0.058793 
     20 C           4.929488    0.775120    0.317701 C.3       1 <1>        -0.046874 
     21 C          -3.753980    1.432680    1.523709 C.3       1 <1>        -0.059021 
     22 C           4.702446   -1.021271   -1.508570 C.3       1 <1>        -0.034580 
     23 C          -5.262777   -0.532092   -1.387369 C.3       1 <1>        -0.047584 
     24 C          -5.228138    1.005908   -1.212284 C.3       1 <1>        -0.052053 
     25 C           5.636856    0.026196   -0.840159 C.3       1 <1>        -0.047359 
     26 C           3.990810    2.708460   -1.019428 C.3       1 <1>        -0.059298 
     27 C          -5.767663   -1.185955    1.042666 C.3       1 <1>        -0.059542 
     28 C          -4.750486   -2.825885   -0.538804 C.3       1 <1>        -0.059542 
     29 C           4.428334   -2.232374   -0.562837 C.3       1 <1>        -0.059802 
     30 C           5.431684   -1.593800   -2.766672 C.3       1 <1>        -0.059802 
     31 H          -1.378626    2.030783    0.419892 H         1 <1>         0.031155 
     32 H           1.800197   -1.251247    0.000471 H         1 <1>         0.030904 
     33 H           2.033709    1.271057   -1.482771 H         1 <1>         0.030904 
     34 H          -2.702807   -1.159371   -0.656129 H         1 <1>         0.031129 
     35 H          -0.532130   -1.913831    0.994417 H         1 <1>         0.027087 
     36 H          -0.886119   -1.579291    2.650348 H         1 <1>         0.027087 
     37 H          -0.332600    1.610442   -1.498440 H         1 <1>         0.026837 
     38 H          -1.470991    0.349352   -1.905027 H         1 <1>         0.026837 
     39 H           1.074610    2.375113    2.155690 H         1 <1>         0.027095 
     40 H           0.945280    2.444228    0.391873 H         1 <1>         0.027095 
     41 H           0.626036   -0.477346   -2.213449 H         1 <1>         0.026829 
     42 H          -0.235850   -1.421154   -1.067408 H         1 <1>         0.026829 
     43 H          -2.708556   -2.618454    1.314467 H         1 <1>         0.026845 
     44 H          -3.170728   -1.297768    2.356360 H         1 <1>         0.026845 
     45 H           3.375530    1.698294    2.100201 H         1 <1>         0.027078 
     46 H           3.108590    3.179993    1.246196 H         1 <1>         0.027078 
     47 H          -3.756819    2.564123   -0.771409 H         1 <1>         0.027069 
     48 H          -3.302894    1.342252   -1.916530 H         1 <1>         0.027069 
     49 H          -1.942163    0.592358    3.258562 H         1 <1>         0.023533 
     50 H          -0.287189    0.712753    3.626386 H         1 <1>         0.023533 
     51 H          -1.061614    2.041179    2.774690 H         1 <1>         0.023533 
     52 H           2.754543   -1.102070   -2.392098 H         1 <1>         0.027335 
     53 H           3.652709    0.346056   -2.807010 H         1 <1>         0.027335 
     54 H           1.364749   -1.376987    2.534553 H         1 <1>         0.023533 
     55 H           1.806160    0.174257    3.280500 H         1 <1>         0.023533 
     56 H           2.784155   -0.537169    2.032298 H         1 <1>         0.023533 
     57 H           5.632447    1.519390    0.727223 H         1 <1>         0.027077 
     58 H           4.769163    0.053070    1.124587 H         1 <1>         0.027077 
     59 H          -3.930527    0.780706    2.380687 H         1 <1>         0.023525 
     60 H          -4.742450    1.859527    1.326312 H         1 <1>         0.023525 
     61 H          -3.180331    2.305822    1.858108 H         1 <1>         0.023525 
     62 H          -6.296608   -0.831532   -1.627885 H         1 <1>         0.027052 
     63 H          -4.636469   -0.788750   -2.258054 H         1 <1>         0.027052 
     64 H          -5.587968    1.472278   -2.147427 H         1 <1>         0.026562 
     65 H          -5.951149    1.309153   -0.444620 H         1 <1>         0.026562 
     66 H           6.534757   -0.480849   -0.448896 H         1 <1>         0.027060 
     67 H           5.985636    0.753761   -1.588014 H         1 <1>         0.027060 
     68 H           3.112771    3.343206   -1.219599 H         1 <1>         0.023516 
     69 H           4.747464    3.347086   -0.537645 H         1 <1>         0.023516 
     70 H           4.395286    2.405766   -1.993086 H         1 <1>         0.023516 
     71 H          -6.754441   -1.557764    0.726546 H         1 <1>         0.023507 
     72 H          -5.916149   -0.161195    1.391504 H         1 <1>         0.023507 
     73 H          -5.452805   -1.791890    1.904110 H         1 <1>         0.023507 
     74 H          -3.997722   -3.040019   -1.312813 H         1 <1>         0.023507 
     75 H          -4.560476   -3.490274    0.315557 H         1 <1>         0.023507 
     76 H          -5.731082   -3.117358   -0.946314 H         1 <1>         0.023507 
     77 H           5.673123   -0.799825   -3.490119 H         1 <1>         0.023499 
     78 H           4.800446   -2.336827   -3.278119 H         1 <1>         0.023499 
     79 H           6.375713   -2.083903   -2.482269 H         1 <1>         0.023499 
     80 H           5.370791   -2.745125   -0.316982 H         1 <1>         0.023499 
     81 H           3.962140   -1.948266    0.384952 H         1 <1>         0.023499 
     82 H           3.765745   -2.960421   -1.055184 H         1 <1>         0.023499 
@<TRIPOS>BOND
     1    1    2 1    
     2    1    3 1    
     3    1    9 1    
     4    1   17 1    
     5    2    4 1    
     6    2   11 1    
     7    2   19 1    
     8    3    5 1    
     9    3   10 1    
    10    3   31 1    
    11    4    6 1    
    12    4   12 1    
    13    4   32 1    
    14    5    7 1    
    15    5   16 1    
    16    5   21 1    
    17    6    8 1    
    18    6   18 1    
    19    6   33 1    
    20    7   13 1    
    21    7   15 1    
    22    7   34 1    
    23    8   14 1    
    24    8   20 1    
    25    8   26 1    
    26    9   13 1    
    27    9   35 1    
    28    9   36 1    
    29   10   12 1    
    30   10   37 1    
    31   10   38 1    
    32   11   14 1    
    33   11   39 1    
    34   11   40 1    
    35   12   41 1    
    36   12   42 1    
    37   13   43 1    
    38   13   44 1    
    39   14   45 1    
    40   14   46 1    
    41   15   23 1    
    42   15   27 1    
    43   15   28 1    
    44   16   24 1    
    45   16   47 1    
    46   16   48 1    
    47   17   49 1    
    48   17   50 1    
    49   17   51 1    
    50   18   22 1    
    51   18   52 1    
    52   18   53 1    
    53   19   54 1    
    54   19   55 1    
    55   19   56 1    
    56   20   25 1    
    57   20   57 1    
    58   20   58 1    
    59   21   59 1    
    60   21   60 1    
    61   21   61 1    
    62   22   25 1    
    63   22   29 1    
    64   22   30 1    
    65   23   24 1    
    66   23   62 1    
    67   23   63 1    
    68   24   64 1    
    69   24   65 1    
    70   25   66 1    
    71   25   67 1    
    72   26   68 1    
    73   26   69 1    
    74   26   70 1    
    75   27   71 1    
    76   27   72 1    
    77   27   73 1    
    78   28   74 1    
    79   28   75 1    
    80   28   76 1    
    81   29   80 1    
    82   29   81 1    
    83   29   82 1    
    84   30   77 1    
    85   30   78 1    
    86   30   79 1    
@<TRIPOS>SUBSTRUCTURE
     1 ****        1 TEMP              0 ****  ****    0 ROOT 
@<TRIPOS>NORMAL
@<TRIPOS>FF_PBC
FORCE_FIELD_SETUP_FEATURE Force Field Setup information
v1.0  0 0.000000 0.000000 0.000000 0.000000 0.000000 0.000000 NONE 0 0 0 0 1 0 0 0 0 0 0 0 0
