@<TRIPOS>MOLECULE
MOL000071
   20    20     1     1     0
SMALL
GASTEIGER


@<TRIPOS>ATOM
      1 C           1.846625    0.132369   -0.710035 C.2       1 <1>         0.276915 
      2 N           1.726567   -2.320462   -0.576095 N.3       1 <1>        -0.319016 
      3 C           0.934813   -1.071385   -0.670964 C.3       1 <1>         0.097012 
      4 C          -0.034743   -0.923988    0.532862 C.3       1 <1>         0.020007 
      5 C          -1.011198    0.236795    0.325763 C.ar      1 <1>         0.112201 
      6 C          -1.609193    1.031235    1.279251 C.ar      1 <1>         0.192361 
      7 N          -2.395740    1.914677    0.590218 N.ar      1 <1>        -0.199397 
      8 C          -2.307264    1.665022   -0.755355 C.ar      1 <1>         0.265871 
      9 N          -1.458800    0.665076   -0.901845 N.ar      1 <1>        -0.192444 
     10 O           1.717552    1.022972   -1.535007 O.2       1 <1>        -0.263426 
     11 O           2.795110    0.152518    0.228949 O.3       1 <1>        -0.330089 
     12 H           1.088032   -3.195329   -0.568143 H         1 <1>         0.118931 
     13 H           2.354348   -2.316065    0.304808 H         1 <1>         0.118931 
     14 H           0.358991   -1.110847   -1.611564 H         1 <1>         0.056594 
     15 H          -0.645459   -1.833843    0.648177 H         1 <1>         0.035032 
     16 H           0.531433   -0.757648    1.462984 H         1 <1>         0.035032 
     17 H          -1.477572    0.958974    2.356641 H         1 <1>         0.139530 
     18 H          -2.945653    2.654420    1.005050 H         1 <1>         0.453875 
     19 H          -2.826077    2.178636   -1.562596 H         1 <1>         0.161822 
     20 H           3.357924    0.917174    0.157000 H         1 <1>         0.220259 
@<TRIPOS>BOND
     1    1    3 1    
     2    1   10 2    
     3    1   11 1    
     4    3    2 1    
     5    2   12 1    
     6    2   13 1    
     7    3    4 1    
     8    3   14 1    
     9    4    5 1    
    10    4   15 1    
    11    4   16 1    
    12    5    6 2    
    13    5    9 1    
    14    6    7 1    
    15    6   17 1    
    16    7    8 1    
    17    7   18 1    
    18    8    9 2    
    19    8   19 1    
    20   11   20 1    
@<TRIPOS>SUBSTRUCTURE
     1 ****        1 TEMP              0 ****  ****    0 ROOT 
@<TRIPOS>NORMAL
@<TRIPOS>FF_PBC
FORCE_FIELD_SETUP_FEATURE Force Field Setup information
v1.0  0 0.000000 0.000000 0.000000 0.000000 0.000000 0.000000 NONE 0 0 0 0 1 0 0 0 0 0 0 0 0
