@<TRIPOS>MOLECULE
MOL000490
   36    38     1     1     0
SMALL
GASTEIGER


@<TRIPOS>ATOM
      1 C          -0.906814   -0.641163    0.415738 C.ar      1 <1>         0.086676 
      2 C           0.015314    0.492543    0.167310 C.ar      1 <1>         0.392909 
      3 C          -0.360336   -1.986091    0.706368 C.ar      1 <1>        -0.012780 
      4 C          -2.291210   -0.446125    0.382306 C.ar      1 <1>        -0.013029 
      5 O           0.715204    0.570146   -1.075365 O.2       1 <1>        -0.200917 
      6 C           0.191626    1.485737    1.153422 C.ar      1 <1>         0.179454 
      7 C          -1.207671   -3.075654    0.958668 C.ar      1 <1>         0.108819 
      8 C          -3.206388   -1.587041    0.635774 C.ar      1 <1>         0.105642 
      9 C           1.581114    1.670218   -1.353729 C.ar      1 <1>         0.368650 
     10 C           1.091578    2.632566    0.883746 C.ar      1 <1>        -0.003975 
     11 O          -0.478067    1.413779    2.376775 O.3       1 <1>        -0.352389 
     12 C          -2.685227   -2.874249    0.920354 C.ar      1 <1>         0.132711 
     13 O          -0.610968   -4.312839    1.238021 O.3       1 <1>        -0.345239 
     14 O          -4.592594   -1.414915    0.598796 O.3       1 <1>        -0.357198 
     15 C           1.764780    2.733029   -0.339683 C.ar      1 <1>         0.111353 
     16 C           2.297457    1.757522   -2.645458 C.ar      1 <1>         0.072933 
     17 O          -3.564679   -3.934600    1.159074 O.3       1 <1>        -0.355389 
     18 C          -1.379297   -5.481319    1.561372 C.3       1 <1>         0.043137 
     19 C           2.655611    3.875763   -0.647311 C.ar      1 <1>         0.091211 
     20 C           3.148862    2.857932   -2.907129 C.ar      1 <1>         0.083955 
     21 C           3.326356    3.922494   -1.888434 C.ar      1 <1>        -0.000977 
     22 O           2.815162    4.887837    0.300861 O.3       1 <1>        -0.358851 
     23 O           3.836498    2.966456   -4.117828 O.3       1 <1>        -0.359443 
     24 H           0.713682   -2.139850    0.729790 H         1 <1>         0.065304 
     25 H          -2.695104    0.538389    0.171743 H         1 <1>         0.065296 
     26 H           1.217571    3.395204    1.645791 H         1 <1>         0.065603 
     27 H          -0.353214    0.586803    2.832824 H         1 <1>         0.217630 
     28 H          -4.873883   -0.532320    0.384776 H         1 <1>         0.217423 
     29 H           2.161146    0.971309   -3.380526 H         1 <1>         0.073778 
     30 H          -4.476562   -3.664768    1.101821 H         1 <1>         0.217502 
     31 H          -0.672212   -6.298928    1.761610 H         1 <1>         0.052871 
     32 H          -2.019279   -5.780539    0.718091 H         1 <1>         0.052871 
     33 H          -1.984410   -5.320125    2.466180 H         1 <1>         0.052871 
     34 H           3.990759    4.747914   -2.117875 H         1 <1>         0.066928 
     35 H           3.189544    5.694525   -0.037618 H         1 <1>         0.217344 
     36 H           3.645752    2.290658   -4.760254 H         1 <1>         0.217320 
@<TRIPOS>BOND
     1    1    2 1    
     2    1    3 1    
     3    1    4 2    
     4    2    5 1    
     5    2    6 2    
     6    3    7 2    
     7    3   24 1    
     8    4    8 1    
     9    4   25 1    
    10    5    9 2    
    11    6   10 1    
    12    6   11 1    
    13    7   12 1    
    14    7   13 1    
    15    8   12 2    
    16    8   14 1    
    17    9   15 1    
    18    9   16 1    
    19   10   15 2    
    20   10   26 1    
    21   11   27 1    
    22   12   17 1    
    23   13   18 1    
    24   14   28 1    
    25   15   19 1    
    26   16   20 2    
    27   16   29 1    
    28   17   30 1    
    29   18   31 1    
    30   18   32 1    
    31   18   33 1    
    32   19   21 2    
    33   19   22 1    
    34   20   21 1    
    35   20   23 1    
    36   21   34 1    
    37   22   35 1    
    38   23   36 1    
@<TRIPOS>SUBSTRUCTURE
     1 ****        1 TEMP              0 ****  ****    0 ROOT 
@<TRIPOS>NORMAL
@<TRIPOS>FF_PBC
FORCE_FIELD_SETUP_FEATURE Force Field Setup information
v1.0  0 0.000000 0.000000 0.000000 0.000000 0.000000 0.000000 NONE 0 0 0 0 1 0 0 0 0 0 0 0 0
