@<TRIPOS>MOLECULE
MOL000716
   26    25     1     1     0
SMALL
GASTEIGER


@<TRIPOS>ATOM
      1 C          -5.494328    0.050817   -0.000122 C.2       1 <1>         0.142804 
      2 C          -4.182052   -0.621679   -0.000015 C.2       1 <1>        -0.026368 
      3 C          -3.016226    0.037839    0.000119 C.2       1 <1>        -0.080990 
      4 C          -1.693276   -0.691362    0.000233 C.3       1 <1>        -0.034373 
      5 C          -0.489232    0.288972   -0.000070 C.3       1 <1>        -0.049606 
      6 C           0.865260   -0.471556    0.000104 C.3       1 <1>        -0.052788 
      7 C           2.066215    0.513652   -0.000139 C.3       1 <1>        -0.053297 
      8 C           3.421709   -0.244473    0.000084 C.3       1 <1>        -0.055911 
      9 C           4.618643    0.741883   -0.000140 C.3       1 <1>        -0.065276 
     10 O          -6.517633   -0.613791   -0.000206 O.2       1 <1>        -0.296330 
     11 H          -5.574732    1.137500   -0.000129 H         1 <1>         0.107505 
     12 H          -4.181431   -1.712097   -0.000041 H         1 <1>         0.064624 
     13 H          -3.022570    1.128737    0.000155 H         1 <1>         0.057298 
     14 H          -1.643569   -1.333559    0.894408 H         1 <1>         0.030742 
     15 H          -1.643631   -1.334038   -0.893600 H         1 <1>         0.030742 
     16 H          -0.547287    0.931662   -0.894271 H         1 <1>         0.026822 
     17 H          -0.547230    0.932131    0.893797 H         1 <1>         0.026822 
     18 H           0.922033   -1.114933    0.893623 H         1 <1>         0.026537 
     19 H           0.922022   -1.115360   -0.893112 H         1 <1>         0.026537 
     20 H           2.010313    1.157112   -0.893649 H         1 <1>         0.026520 
     21 H           2.010289    1.157568    0.893041 H         1 <1>         0.026520 
     22 H           3.485194   -0.887667    0.893724 H         1 <1>         0.026265 
     23 H           3.485231   -0.888118   -0.893224 H         1 <1>         0.026265 
     24 H           5.569194    0.185211    0.000033 H         1 <1>         0.022978 
     25 H           4.588522    1.382595   -0.895292 H         1 <1>         0.022978 
     26 H           4.588473    1.383054    0.894689 H         1 <1>         0.022978 
@<TRIPOS>BOND
     1    1    2 1    
     2    1   10 2    
     3    1   11 1    
     4    2    3 2    
     5    2   12 1    
     6    3    4 1    
     7    3   13 1    
     8    4    5 1    
     9    4   14 1    
    10    4   15 1    
    11    5    6 1    
    12    5   16 1    
    13    5   17 1    
    14    6    7 1    
    15    6   18 1    
    16    6   19 1    
    17    7    8 1    
    18    7   20 1    
    19    7   21 1    
    20    8    9 1    
    21    8   22 1    
    22    8   23 1    
    23    9   24 1    
    24    9   25 1    
    25    9   26 1    
@<TRIPOS>SUBSTRUCTURE
     1 ****        1 TEMP              0 ****  ****    0 ROOT 
@<TRIPOS>NORMAL
@<TRIPOS>FF_PBC
FORCE_FIELD_SETUP_FEATURE Force Field Setup information
v1.0  0 0.000000 0.000000 0.000000 0.000000 0.000000 0.000000 NONE 0 0 0 0 1 0 0 0 0 0 0 0 0
