@<TRIPOS>MOLECULE
MOL000514
   89    88     1     1     0
SMALL
GASTEIGER


@<TRIPOS>ATOM
      1 C           0.375042   -0.183896    0.000109 C.3       1 <1>        -0.053057 
      2 C          -0.976626   -0.949200   -0.000108 C.3       1 <1>        -0.053057 
      3 C           0.152400    1.353350   -0.000112 C.3       1 <1>        -0.053057 
      4 C          -0.757792   -2.486923    0.000115 C.3       1 <1>        -0.053057 
      5 C           1.502110    2.121951    0.000119 C.3       1 <1>        -0.053057 
      6 C          -2.110705   -3.250249   -0.000116 C.3       1 <1>        -0.053057 
      7 C           1.277137    3.658966   -0.000107 C.3       1 <1>        -0.053057 
      8 C          -1.892162   -4.788072    0.000109 C.3       1 <1>        -0.053057 
      9 C           2.626750    4.427865    0.000110 C.3       1 <1>        -0.053057 
     10 C          -3.244360   -5.552574   -0.000112 C.3       1 <1>        -0.053057 
     11 C           2.403150    5.965049   -0.000113 C.3       1 <1>        -0.053057 
     12 C          -3.023500   -7.090143    0.000110 C.3       1 <1>        -0.053057 
     13 C           3.753988    6.731968    0.000108 C.3       1 <1>        -0.053057 
     14 C          -4.374396   -7.856913   -0.000113 C.3       1 <1>        -0.053057 
     15 C           3.532976    8.269504   -0.000117 C.3       1 <1>        -0.053057 
     16 C          -4.152007   -9.394351    0.000112 C.3       1 <1>        -0.053057 
     17 C           4.884637    9.035114    0.000110 C.3       1 <1>        -0.053057 
     18 C          -5.502442  -10.162117   -0.000112 C.3       1 <1>        -0.053057 
     19 C           4.664693   10.572888   -0.000112 C.3       1 <1>        -0.053057 
     20 C          -5.279169  -11.699367    0.000112 C.3       1 <1>        -0.053057 
     21 C           6.016754   11.337699    0.000109 C.3       1 <1>        -0.053057 
     22 C          -6.628845  -12.468325   -0.000111 C.3       1 <1>        -0.053065 
     23 C           5.798219   12.875619   -0.000115 C.3       1 <1>        -0.053065 
     24 C          -6.403252  -14.005145    0.000116 C.3       1 <1>        -0.053306 
     25 C           7.151364   13.638329    0.000112 C.3       1 <1>        -0.053306 
     26 C          -7.751313  -14.776326   -0.000126 C.3       1 <1>        -0.055911 
     27 C           6.935571   15.176320   -0.000120 C.3       1 <1>        -0.055911 
     28 C          -7.522337  -16.310352    0.000129 C.3       1 <1>        -0.065276 
     29 C           8.288567   15.934640    0.000133 C.3       1 <1>        -0.065276 
     30 H           0.954963   -0.468254    0.893592 H         1 <1>         0.026528 
     31 H           0.955389   -0.468465   -0.893020 H         1 <1>         0.026528 
     32 H          -1.556212   -0.664260   -0.893601 H         1 <1>         0.026528 
     33 H          -1.556638   -0.664051    0.893042 H         1 <1>         0.026528 
     34 H          -0.427771    1.637080   -0.893606 H         1 <1>         0.026528 
     35 H          -0.428208    1.637292    0.893036 H         1 <1>         0.026528 
     36 H          -0.178435   -2.772372    0.893627 H         1 <1>         0.026528 
     37 H          -0.177999   -2.772582   -0.893056 H         1 <1>         0.026528 
     38 H           2.082545    1.838715    0.893628 H         1 <1>         0.026528 
     39 H           2.082986    1.838499   -0.893049 H         1 <1>         0.026528 
     40 H          -2.690099   -2.964803   -0.893617 H         1 <1>         0.026528 
     41 H          -2.690539   -2.964587    0.893034 H         1 <1>         0.026528 
     42 H           0.696679    3.942249   -0.893612 H         1 <1>         0.026528 
     43 H           0.696249    3.942462    0.893037 H         1 <1>         0.026528 
     44 H          -1.312667   -5.073216    0.893639 H         1 <1>         0.026528 
     45 H          -1.312236   -5.073431   -0.893066 H         1 <1>         0.026528 
     46 H           3.207041    4.144337    0.893634 H         1 <1>         0.026528 
     47 H           3.207469    4.144129   -0.893073 H         1 <1>         0.026528 
     48 H          -3.823987   -5.267680   -0.893656 H         1 <1>         0.026528 
     49 H          -3.824413   -5.267472    0.893092 H         1 <1>         0.026528 
     50 H           1.822984    6.248844   -0.893657 H         1 <1>         0.026528 
     51 H           1.822557    6.249053    0.893098 H         1 <1>         0.026528 
     52 H          -2.443598   -7.374504    0.893648 H         1 <1>         0.026528 
     53 H          -2.443171   -7.374713   -0.893089 H         1 <1>         0.026528 
     54 H           4.333894    6.447623    0.893656 H         1 <1>         0.026528 
     55 H           4.334322    6.447409   -0.893085 H         1 <1>         0.026528 
     56 H          -4.954423   -7.572797   -0.893631 H         1 <1>         0.026528 
     57 H          -4.954854   -7.572582    0.893060 H         1 <1>         0.026528 
     58 H           2.953179    8.554077   -0.893632 H         1 <1>         0.026528 
     59 H           2.952742    8.554293    0.893050 H         1 <1>         0.026528 
     60 H          -3.571742   -9.678140    0.893615 H         1 <1>         0.026528 
     61 H          -3.571306   -9.678354   -0.893032 H         1 <1>         0.026528 
     62 H           5.464316    8.750140    0.893603 H         1 <1>         0.026528 
     63 H           5.464749    8.749929   -0.893033 H         1 <1>         0.026528 
     64 H          -6.082567   -9.878373   -0.893698 H         1 <1>         0.026528 
     65 H          -6.083000   -9.878164    0.893129 H         1 <1>         0.026528 
     66 H           4.085132   10.857791   -0.893693 H         1 <1>         0.026528 
     67 H           4.084708   10.858002    0.893128 H         1 <1>         0.026528 
     68 H          -4.698801  -11.982819    0.893597 H         1 <1>         0.026528 
     69 H          -4.698376  -11.983028   -0.893036 H         1 <1>         0.026528 
     70 H           6.596235   11.052438    0.893596 H         1 <1>         0.026528 
     71 H           6.596660   11.052227   -0.893045 H         1 <1>         0.026528 
     72 H          -7.209448  -12.185494   -0.893626 H         1 <1>         0.026528 
     73 H          -7.209875  -12.185284    0.893058 H         1 <1>         0.026528 
     74 H           5.219085   13.161442   -0.893642 H         1 <1>         0.026528 
     75 H           5.218658   13.161652    0.893056 H         1 <1>         0.026528 
     76 H          -5.822980  -14.288530    0.893678 H         1 <1>         0.026520 
     77 H          -5.822547  -14.288737   -0.893094 H         1 <1>         0.026520 
     78 H           7.730728   13.353088    0.893669 H         1 <1>         0.026520 
     79 H           7.731154   13.352882   -0.893107 H         1 <1>         0.026520 
     80 H          -8.335347  -14.499456   -0.893736 H         1 <1>         0.026265 
     81 H          -8.335775  -14.499261    0.893150 H         1 <1>         0.026265 
     82 H           6.359048   15.468514   -0.893725 H         1 <1>         0.026265 
     83 H           6.358636   15.468720    0.893158 H         1 <1>         0.026265 
     84 H          -8.489140  -16.838400   -0.000107 H         1 <1>         0.022978 
     85 H          -6.957409  -16.614327    0.895218 H         1 <1>         0.022978 
     86 H          -6.957045  -16.614539   -0.894628 H         1 <1>         0.022978 
     87 H           8.114024   17.022331   -0.000086 H         1 <1>         0.022978 
     88 H           8.874818   15.674151    0.895216 H         1 <1>         0.022978 
     89 H           8.875205   15.674004   -0.894622 H         1 <1>         0.022978 
@<TRIPOS>BOND
     1    1    2 1    
     2    1    3 1    
     3    1   30 1    
     4    1   31 1    
     5    2    4 1    
     6    2   32 1    
     7    2   33 1    
     8    3    5 1    
     9    3   34 1    
    10    3   35 1    
    11    4    6 1    
    12    4   36 1    
    13    4   37 1    
    14    5    7 1    
    15    5   38 1    
    16    5   39 1    
    17    6    8 1    
    18    6   40 1    
    19    6   41 1    
    20    7    9 1    
    21    7   42 1    
    22    7   43 1    
    23    8   10 1    
    24    8   44 1    
    25    8   45 1    
    26    9   11 1    
    27    9   46 1    
    28    9   47 1    
    29   10   12 1    
    30   10   48 1    
    31   10   49 1    
    32   11   13 1    
    33   11   50 1    
    34   11   51 1    
    35   12   14 1    
    36   12   52 1    
    37   12   53 1    
    38   13   15 1    
    39   13   54 1    
    40   13   55 1    
    41   14   16 1    
    42   14   56 1    
    43   14   57 1    
    44   15   17 1    
    45   15   58 1    
    46   15   59 1    
    47   16   18 1    
    48   16   60 1    
    49   16   61 1    
    50   17   19 1    
    51   17   62 1    
    52   17   63 1    
    53   18   20 1    
    54   18   64 1    
    55   18   65 1    
    56   19   21 1    
    57   19   66 1    
    58   19   67 1    
    59   20   22 1    
    60   20   68 1    
    61   20   69 1    
    62   21   23 1    
    63   21   70 1    
    64   21   71 1    
    65   22   24 1    
    66   22   72 1    
    67   22   73 1    
    68   23   25 1    
    69   23   74 1    
    70   23   75 1    
    71   24   26 1    
    72   24   76 1    
    73   24   77 1    
    74   25   27 1    
    75   25   78 1    
    76   25   79 1    
    77   26   28 1    
    78   26   80 1    
    79   26   81 1    
    80   27   29 1    
    81   27   82 1    
    82   27   83 1    
    83   28   84 1    
    84   28   85 1    
    85   28   86 1    
    86   29   87 1    
    87   29   88 1    
    88   29   89 1    
@<TRIPOS>SUBSTRUCTURE
     1 ****        1 TEMP              0 ****  ****    0 ROOT 
@<TRIPOS>NORMAL
@<TRIPOS>FF_PBC
FORCE_FIELD_SETUP_FEATURE Force Field Setup information
v1.0  0 0.000000 0.000000 0.000000 0.000000 0.000000 0.000000 NONE 0 0 0 0 1 0 0 0 0 0 0 0 0
