@<TRIPOS>MOLECULE
MOL000267
   31    30     1     1     0
SMALL
GASTEIGER


@<TRIPOS>ATOM
      1 C           0.704711   -1.466557    1.237648 C.3       1 <1>        -0.041534 
      2 C          -0.594563   -0.630838    1.004749 C.3       1 <1>        -0.046940 
      3 C           1.958946   -0.557732    1.420738 C.3       1 <1>        -0.027119 
      4 C           0.913395   -2.531096    0.122742 C.3       1 <1>        -0.062334 
      5 C          -0.619683    0.201284   -0.308733 C.3       1 <1>        -0.034283 
      6 C           3.214188   -1.320213    1.919420 C.3       1 <1>         0.044448 
      7 C          -1.909867    0.974777   -0.466200 C.2       1 <1>        -0.085278 
      8 O           4.249331   -0.354883    2.181481 O.3       1 <1>        -0.394998 
      9 C          -2.206334    1.763197   -1.513441 C.2       1 <1>        -0.079617 
     10 C          -3.525808    2.502309   -1.590019 C.3       1 <1>        -0.044050 
     11 C          -1.280987    1.988819   -2.690897 C.3       1 <1>        -0.044050 
     12 H           0.547777   -2.011719    2.186061 H         1 <1>         0.029893 
     13 H          -1.458113   -1.317213    0.993462 H         1 <1>         0.027080 
     14 H          -0.732081    0.057058    1.855898 H         1 <1>         0.027080 
     15 H           2.222282   -0.060907    0.474437 H         1 <1>         0.028982 
     16 H           1.732086    0.223488    2.164605 H         1 <1>         0.028982 
     17 H           1.659117   -3.280364    0.427674 H         1 <1>         0.023243 
     18 H          -0.027543   -3.065455   -0.080138 H         1 <1>         0.023243 
     19 H           1.259798   -2.063140   -0.810566 H         1 <1>         0.023243 
     20 H           0.209780    0.923738   -0.305979 H         1 <1>         0.030748 
     21 H          -0.516251   -0.473218   -1.171864 H         1 <1>         0.030748 
     22 H           2.972997   -1.874365    2.842688 H         1 <1>         0.055705 
     23 H           3.563591   -2.032376    1.153652 H         1 <1>         0.055705 
     24 H          -2.643214    0.877041    0.335065 H         1 <1>         0.057145 
     25 H           5.057809   -0.746389    2.499262 H         1 <1>         0.209395 
     26 H          -3.336313    3.584443   -1.652341 H         1 <1>         0.027427 
     27 H          -4.176944    2.321242   -0.721492 H         1 <1>         0.027427 
     28 H          -4.069432    2.187681   -2.493491 H         1 <1>         0.027427 
     29 H          -0.321757    1.458516   -2.624469 H         1 <1>         0.027427 
     30 H          -1.783734    1.658854   -3.612303 H         1 <1>         0.027427 
     31 H          -1.063081    3.063817   -2.777746 H         1 <1>         0.027427 
@<TRIPOS>BOND
     1    1    2 1    
     2    1    3 1    
     3    1    4 1    
     4    1   12 1    
     5    2    5 1    
     6    2   13 1    
     7    2   14 1    
     8    3    6 1    
     9    3   15 1    
    10    3   16 1    
    11    4   17 1    
    12    4   18 1    
    13    4   19 1    
    14    5    7 1    
    15    5   20 1    
    16    5   21 1    
    17    6    8 1    
    18    6   22 1    
    19    6   23 1    
    20    7    9 2    
    21    7   24 1    
    22    8   25 1    
    23    9   10 1    
    24    9   11 1    
    25   10   26 1    
    26   10   27 1    
    27   10   28 1    
    28   11   29 1    
    29   11   30 1    
    30   11   31 1    
@<TRIPOS>SUBSTRUCTURE
     1 ****        1 TEMP              0 ****  ****    0 ROOT 
@<TRIPOS>NORMAL
@<TRIPOS>FF_PBC
FORCE_FIELD_SETUP_FEATURE Force Field Setup information
v1.0  0 0.000000 0.000000 0.000000 0.000000 0.000000 0.000000 NONE 0 0 0 0 1 0 0 0 0 0 0 0 0
