@<TRIPOS>MOLECULE
MOL002305
   54    56     1     1     0
SMALL
GASTEIGER


@<TRIPOS>ATOM
      1 C           3.016006    0.967408   -0.658980 C.3       1 <1>         0.113027 
      2 C           2.472283   -0.423601   -0.235671 C.3       1 <1>         0.112790 
      3 C           1.073161   -0.255844    0.413575 C.3       1 <1>         0.128017 
      4 C           0.147272    0.481217   -0.589666 C.3       1 <1>         0.147857 
      5 C           0.790074    1.816692   -1.036834 C.3       1 <1>         0.186301 
      6 O           2.100524    1.587779   -1.586692 O.3       1 <1>        -0.340673 
      7 C           4.399893    0.836742   -1.347043 C.3       1 <1>         0.073015 
      8 O           0.520251   -1.575062    0.588693 O.3       1 <1>        -0.302624 
      9 C          -0.329981   -1.788589    1.609458 C.2       1 <1>         0.294389 
     10 C          -0.359761   -1.089960    2.955917 C.ar      1 <1>         0.051505 
     11 C          -0.143776   -1.908145    4.047862 C.ar      1 <1>        -0.016369 
     12 C          -0.125636   -1.365993    5.422736 C.ar      1 <1>         0.105520 
     13 C          -0.348540    0.105814    5.616405 C.ar      1 <1>         0.132457 
     14 C          -0.594289    0.947072    4.421217 C.ar      1 <1>         0.105520 
     15 C          -0.610214    0.364942    3.163735 C.ar      1 <1>        -0.016369 
     16 O          -1.112443   -2.711017    1.456133 O.2       1 <1>        -0.259212 
     17 O           0.098271   -2.214107    6.507478 O.3       1 <1>        -0.357199 
     18 O          -0.326054    0.656222    6.899290 O.3       1 <1>        -0.355395 
     19 O          -0.810479    2.319344    4.595575 O.3       1 <1>        -0.357199 
     20 O           4.943248    2.149481   -1.589606 O.3       1 <1>        -0.392366 
     21 O           3.382218   -1.030309    0.702109 O.3       1 <1>        -0.386460 
     22 O          -1.132945    0.721587    0.034139 O.3       1 <1>        -0.300299 
     23 C          -2.139556    1.007958   -0.801918 C.2       1 <1>         0.294463 
     24 C          -2.341410    0.319335   -2.133610 C.ar      1 <1>         0.051507 
     25 C          -2.756312    1.047428   -3.258401 C.ar      1 <1>        -0.016369 
     26 C          -2.953450    0.367018   -4.559248 C.ar      1 <1>         0.105520 
     27 C          -2.719584   -1.026878   -4.670042 C.ar      1 <1>         0.132457 
     28 C          -2.288217   -1.803894   -3.480578 C.ar      1 <1>         0.105520 
     29 C          -2.114986   -1.143417   -2.243023 C.ar      1 <1>        -0.016369 
     30 O          -2.065344   -3.178847   -3.610430 O.3       1 <1>        -0.357199 
     31 O          -2.899331   -1.660334   -5.902254 O.3       1 <1>        -0.355395 
     32 O          -3.367962    1.110604   -5.665829 O.3       1 <1>        -0.357199 
     33 O          -2.951850    1.844465   -0.444795 O.2       1 <1>        -0.259211 
     34 O          -0.001149    2.374643   -2.096745 O.3       1 <1>        -0.364860 
     35 H           3.153803    1.600337    0.233784 H         1 <1>         0.064668 
     36 H           2.390435   -1.055268   -1.138397 H         1 <1>         0.064700 
     37 H           1.248380    0.303737    1.343382 H         1 <1>         0.065698 
     38 H           0.106042   -0.159957   -1.481618 H         1 <1>         0.068036 
     39 H           0.828136    2.515723   -0.181844 H         1 <1>         0.093573 
     40 H           5.089075    0.267578   -0.699450 H         1 <1>         0.058370 
     41 H           4.272027    0.294791   -2.299319 H         1 <1>         0.058370 
     42 H           0.022868   -2.972121    3.910758 H         1 <1>         0.065181 
     43 H          -0.819078    0.998162    2.317554 H         1 <1>         0.065181 
     44 H           0.047003   -1.742624    7.333086 H         1 <1>         0.217423 
     45 H          -0.491756    1.593730    6.873321 H         1 <1>         0.217501 
     46 H          -1.019402    2.802569    3.803187 H         1 <1>         0.217423 
     47 H           5.786455    2.130862   -2.033494 H         1 <1>         0.209508 
     48 H           3.088103   -1.891932    0.985955 H         1 <1>         0.210004 
     49 H          -2.933618    2.115005   -3.184622 H         1 <1>         0.065181 
     50 H          -1.818994   -1.702467   -1.360514 H         1 <1>         0.065181 
     51 H          -1.753428   -3.604578   -2.819025 H         1 <1>         0.217423 
     52 H          -2.709970   -2.592320   -5.842730 H         1 <1>         0.217501 
     53 H          -3.472243    0.565401   -6.440146 H         1 <1>         0.217423 
     54 H           0.395533    3.166216   -2.447625 H         1 <1>         0.212561 
@<TRIPOS>BOND
     1    1    2 1    
     2    1    6 1    
     3    1    7 1    
     4    1   35 1    
     5    2    3 1    
     6    2   21 1    
     7    2   36 1    
     8    3    4 1    
     9    3    8 1    
    10    3   37 1    
    11    4    5 1    
    12    4   22 1    
    13    4   38 1    
    14    5    6 1    
    15    5   34 1    
    16    5   39 1    
    17    7   20 1    
    18    7   40 1    
    19    7   41 1    
    20    8    9 1    
    21    9   10 1    
    22    9   16 2    
    23   10   11 2    
    24   10   15 1    
    25   11   12 1    
    26   11   42 1    
    27   12   13 2    
    28   12   17 1    
    29   13   14 1    
    30   13   18 1    
    31   14   15 2    
    32   14   19 1    
    33   15   43 1    
    34   17   44 1    
    35   18   45 1    
    36   19   46 1    
    37   20   47 1    
    38   21   48 1    
    39   22   23 1    
    40   23   24 1    
    41   23   33 2    
    42   24   25 2    
    43   24   29 1    
    44   25   26 1    
    45   25   49 1    
    46   26   27 2    
    47   26   32 1    
    48   27   28 1    
    49   27   31 1    
    50   28   29 2    
    51   28   30 1    
    52   29   50 1    
    53   30   51 1    
    54   31   52 1    
    55   32   53 1    
    56   34   54 1    
@<TRIPOS>SUBSTRUCTURE
     1 ****        1 TEMP              0 ****  ****    0 ROOT 
@<TRIPOS>NORMAL
@<TRIPOS>FF_PBC
FORCE_FIELD_SETUP_FEATURE Force Field Setup information
v1.0  0 0.000000 0.000000 0.000000 0.000000 0.000000 0.000000 NONE 0 0 0 0 1 0 0 0 0 0 0 0 0
