@<TRIPOS>MOLECULE
MOL000172
   11    11     1     1     0
SMALL
GASTEIGER


@<TRIPOS>ATOM
      1 C           1.152906    1.426590    1.052627 C.2       1 <1>         0.246154 
      2 C           0.435047    0.350930    0.268346 C.ar      1 <1>         0.394358 
      3 C          -0.923387    0.277906    0.133795 C.ar      1 <1>         0.054080 
      4 C          -1.178778   -0.906840   -0.696792 C.ar      1 <1>         0.043575 
      5 C           0.048098   -1.431059   -0.981124 C.ar      1 <1>         0.322188 
      6 O           1.107288   -0.696392   -0.410149 O.2       1 <1>        -0.209630 
      7 O           2.370591    1.418703    1.122791 O.2       1 <1>        -0.286432 
      8 H           0.598270    2.214913    1.560320 H         1 <1>         0.117465 
      9 H          -1.663585    0.952267    0.551592 H         1 <1>         0.071516 
     10 H          -2.144879   -1.284480   -1.016466 H         1 <1>         0.070735 
     11 H           0.198529   -2.322537   -1.584841 H         1 <1>         0.175991 
@<TRIPOS>BOND
     1    1    2 1    
     2    1    7 2    
     3    1    8 1    
     4    2    3 2    
     5    2    6 1    
     6    3    4 1    
     7    3    9 1    
     8    4    5 2    
     9    4   10 1    
    10    5    6 1    
    11    5   11 1    
@<TRIPOS>SUBSTRUCTURE
     1 ****        1 TEMP              0 ****  ****    0 ROOT 
@<TRIPOS>NORMAL
@<TRIPOS>FF_PBC
FORCE_FIELD_SETUP_FEATURE Force Field Setup information
v1.0  0 0.000000 0.000000 0.000000 0.000000 0.000000 0.000000 NONE 0 0 0 0 1 0 0 0 0 0 0 0 0
