@<TRIPOS>MOLECULE
MOL002494
   50    50     1     1     0
SMALL
GASTEIGER


@<TRIPOS>ATOM
      1 S          -4.021601    1.110657   -0.008104 S.o       1 <1>         0.451591 
      2 O          -4.965157    0.020122    0.426313 O.3       1 <1>        -0.144620 
      3 O          -4.442410    1.631182   -1.294389 O.2       1 <1>        -0.012724 
      4 O          -4.004329    2.183762    0.968749 O.2       1 <1>        -0.012724 
      5 O          -1.545385    2.213625    1.599296 O.2       1 <1>        -0.297220 
      6 O           2.420562   -1.182226    1.083649 O.3       1 <1>        -0.345341 
      7 O           3.658206   -1.086974   -1.406773 O.3       1 <1>        -0.357269 
      8 C          -2.394012    0.313001   -0.175341 C.3       1 <1>         0.205847 
      9 C          -2.538389   -0.834200   -1.220036 C.3       1 <1>         0.002277 
     10 C          -1.279766   -1.723067   -1.445530 C.3       1 <1>        -0.048301 
     11 C          -1.342139    1.372686   -0.606688 C.3       1 <1>         0.060405 
     12 C          -0.786991   -2.429453   -0.151534 C.3       1 <1>        -0.053144 
     13 C          -1.143250    2.416237    0.465511 C.2       1 <1>         0.138638 
     14 C          -0.422888    3.697309    0.116674 C.3       1 <1>         0.009977 
     15 C           0.288972   -3.503829   -0.471507 C.3       1 <1>        -0.055909 
     16 C           1.023812    3.675908    0.672002 C.3       1 <1>        -0.020923 
     17 C           0.712875   -4.278495    0.803264 C.3       1 <1>        -0.065276 
     18 C           1.741630    2.430233    0.137591 C.ar      1 <1>        -0.044363 
     19 C           1.736785    1.232993    0.881442 C.ar      1 <1>        -0.025965 
     20 C           2.432454    2.475978   -1.173254 C.ar      1 <1>        -0.055971 
     21 C           2.406408    0.015552    0.357084 C.ar      1 <1>         0.105659 
     22 C           3.060588    1.330788   -1.678727 C.ar      1 <1>        -0.029141 
     23 C           3.044564    0.063398   -0.904315 C.ar      1 <1>         0.102451 
     24 C           2.384718   -1.132996    2.518691 C.3       1 <1>         0.043136 
     25 H          -2.133723   -0.108174    0.808797 H         1 <1>         0.095210 
     26 H          -3.358145   -1.497152   -0.897805 H         1 <1>         0.031574 
     27 H          -2.830992   -0.392275   -2.186707 H         1 <1>         0.031574 
     28 H          -1.666012    1.842042   -1.548642 H         1 <1>         0.039283 
     29 H          -0.367765    0.895145   -0.772256 H         1 <1>         0.039283 
     30 H          -1.562154   -2.499458   -2.177350 H         1 <1>         0.026688 
     31 H          -0.453409   -1.149369   -1.893579 H         1 <1>         0.026688 
     32 H          -0.350197   -1.693168    0.542767 H         1 <1>         0.026522 
     33 H          -1.640859   -2.918391    0.345791 H         1 <1>         0.026522 
     34 H          -0.973466    4.545099    0.554708 H         1 <1>         0.034472 
     35 H          -0.385374    3.845440   -0.974358 H         1 <1>         0.034472 
     36 H           1.173240   -3.018747   -0.919244 H         1 <1>         0.026265 
     37 H          -0.111865   -4.231060   -1.197385 H         1 <1>         0.026265 
     38 H           1.004079    3.657244    1.774761 H         1 <1>         0.031720 
     39 H           1.567528    4.584080    0.361826 H         1 <1>         0.031720 
     40 H          -0.151755   -4.796539    1.246830 H         1 <1>         0.022978 
     41 H           1.480272   -5.028629    0.554590 H         1 <1>         0.022978 
     42 H           1.128408   -3.588440    1.550811 H         1 <1>         0.022978 
     43 H          -4.962341   -0.097283    1.370136 H         1 <1>         0.284476 
     44 H           1.228334    1.212788    1.836234 H         1 <1>         0.064684 
     45 H           2.450594    3.399294   -1.743585 H         1 <1>         0.062110 
     46 H           3.561129    1.374481   -2.640042 H         1 <1>         0.064412 
     47 H           4.187114   -0.933338   -2.180902 H         1 <1>         0.217422 
     48 H           2.636873   -2.132890    2.904678 H         1 <1>         0.052871 
     49 H           1.381785   -0.866917    2.880056 H         1 <1>         0.052871 
     50 H           3.124443   -0.416679    2.906702 H         1 <1>         0.052871 
@<TRIPOS>BOND
     1    1    2 1    
     2    1    3 2    
     3    1    4 2    
     4    8    1 1    
     5    2   43 1    
     6   13    5 2    
     7   21    6 1    
     8    6   24 1    
     9   23    7 1    
    10    7   47 1    
    11    8    9 1    
    12   11    8 1    
    13    8   25 1    
    14    9   10 1    
    15    9   26 1    
    16    9   27 1    
    17   10   12 1    
    18   10   30 1    
    19   10   31 1    
    20   13   11 1    
    21   11   28 1    
    22   11   29 1    
    23   12   15 1    
    24   12   32 1    
    25   12   33 1    
    26   14   13 1    
    27   16   14 1    
    28   14   34 1    
    29   14   35 1    
    30   15   17 1    
    31   15   36 1    
    32   15   37 1    
    33   18   16 1    
    34   16   38 1    
    35   16   39 1    
    36   17   40 1    
    37   17   41 1    
    38   17   42 1    
    39   19   18 2    
    40   18   20 1    
    41   21   19 1    
    42   19   44 1    
    43   20   22 2    
    44   20   45 1    
    45   21   23 2    
    46   22   23 1    
    47   22   46 1    
    48   24   48 1    
    49   24   49 1    
    50   24   50 1    
@<TRIPOS>SUBSTRUCTURE
     1 ****        1 TEMP              0 ****  ****    0 ROOT 
@<TRIPOS>NORMAL
@<TRIPOS>FF_PBC
FORCE_FIELD_SETUP_FEATURE Force Field Setup information
v1.0  0 0.000000 0.000000 0.000000 0.000000 0.000000 0.000000 NONE 0 0 0 0 1 0 0 0 0 0 0 0 0
