@<TRIPOS>MOLECULE
MOL001890
   54    53     1     1     0
SMALL
GASTEIGER


@<TRIPOS>ATOM
      1 C          -4.809351   -9.719394    0.000115 C.3       1 <1>        -0.065276 
      2 C          -3.475153   -8.928499   -0.000083 C.3       1 <1>        -0.055911 
      3 C          -3.728196   -7.396270    0.000140 C.3       1 <1>        -0.053306 
      4 C          -2.394406   -6.600102   -0.000036 C.3       1 <1>        -0.053065 
      5 C          -2.652902   -5.068324    0.000131 C.3       1 <1>        -0.053048 
      6 C          -1.322373   -4.266802   -0.000049 C.3       1 <1>        -0.052779 
      7 C          -1.586752   -2.736113    0.000055 C.3       1 <1>        -0.049616 
      8 C          -0.260116   -1.929967   -0.000173 C.3       1 <1>        -0.034761 
      9 C          -0.505025   -0.439738   -0.000158 C.2       1 <1>        -0.087932 
     10 C           0.505025    0.439738   -0.000158 C.2       1 <1>        -0.087932 
     11 C           0.260116    1.929967   -0.000173 C.3       1 <1>        -0.034761 
     12 C           1.586752    2.736113    0.000055 C.3       1 <1>        -0.049616 
     13 C           1.322373    4.266802   -0.000049 C.3       1 <1>        -0.052779 
     14 C           2.652902    5.068324    0.000131 C.3       1 <1>        -0.053048 
     15 C           2.394406    6.600102   -0.000036 C.3       1 <1>        -0.053065 
     16 C           3.728196    7.396270    0.000140 C.3       1 <1>        -0.053306 
     17 C           3.475153    8.928499   -0.000083 C.3       1 <1>        -0.055911 
     18 C           4.809351    9.719394    0.000115 C.3       1 <1>        -0.065276 
     19 H          -4.608295  -10.802445   -0.000070 H         1 <1>         0.022978 
     20 H          -5.401676   -9.473471    0.895303 H         1 <1>         0.022978 
     21 H          -5.402096   -9.473248   -0.894736 H         1 <1>         0.022978 
     22 H          -2.891766   -9.206312   -0.893815 H         1 <1>         0.026265 
     23 H          -2.891345   -9.206540    0.893305 H         1 <1>         0.026265 
     24 H          -4.314380   -7.125274    0.893677 H         1 <1>         0.026520 
     25 H          -4.314815   -7.125053   -0.893058 H         1 <1>         0.026520 
     26 H          -1.808193   -6.871346   -0.893477 H         1 <1>         0.026528 
     27 H          -1.807771   -6.871541    0.893082 H         1 <1>         0.026528 
     28 H          -3.239841   -4.798451    0.893523 H         1 <1>         0.026529 
     29 H          -3.240266   -4.798270   -0.892940 H         1 <1>         0.026529 
     30 H          -0.735000   -4.535199   -0.893592 H         1 <1>         0.026538 
     31 H          -0.734604   -4.535315    0.893215 H         1 <1>         0.026538 
     32 H          -2.172677   -2.465821    0.894254 H         1 <1>         0.026822 
     33 H          -2.173068   -2.465731   -0.893867 H         1 <1>         0.026822 
     34 H           0.328492   -2.191137   -0.894392 H         1 <1>         0.030732 
     35 H           0.328851   -2.191146    0.893811 H         1 <1>         0.030732 
     36 H          -1.529317   -0.064123   -0.000164 H         1 <1>         0.056896 
     37 H           1.529317    0.064123   -0.000164 H         1 <1>         0.056896 
     38 H          -0.328492    2.191137   -0.894392 H         1 <1>         0.030732 
     39 H          -0.328851    2.191146    0.893811 H         1 <1>         0.030732 
     40 H           2.172677    2.465821    0.894254 H         1 <1>         0.026822 
     41 H           2.173068    2.465731   -0.893867 H         1 <1>         0.026822 
     42 H           0.735000    4.535199   -0.893592 H         1 <1>         0.026538 
     43 H           0.734604    4.535315    0.893215 H         1 <1>         0.026538 
     44 H           3.239841    4.798451    0.893523 H         1 <1>         0.026529 
     45 H           3.240266    4.798270   -0.892940 H         1 <1>         0.026529 
     46 H           1.808193    6.871346   -0.893477 H         1 <1>         0.026528 
     47 H           1.807771    6.871541    0.893082 H         1 <1>         0.026528 
     48 H           4.314380    7.125274    0.893677 H         1 <1>         0.026520 
     49 H           4.314815    7.125053   -0.893058 H         1 <1>         0.026520 
     50 H           2.891766    9.206312   -0.893815 H         1 <1>         0.026265 
     51 H           2.891345    9.206540    0.893305 H         1 <1>         0.026265 
     52 H           4.608295   10.802445   -0.000070 H         1 <1>         0.022978 
     53 H           5.401676    9.473471    0.895303 H         1 <1>         0.022978 
     54 H           5.402096    9.473248   -0.894736 H         1 <1>         0.022978 
@<TRIPOS>BOND
     1    1    2 1    
     2    1   19 1    
     3    1   20 1    
     4    1   21 1    
     5    2    3 1    
     6    2   22 1    
     7    2   23 1    
     8    3    4 1    
     9    3   24 1    
    10    3   25 1    
    11    4    5 1    
    12    4   26 1    
    13    4   27 1    
    14    5    6 1    
    15    5   28 1    
    16    5   29 1    
    17    6    7 1    
    18    6   30 1    
    19    6   31 1    
    20    7    8 1    
    21    7   32 1    
    22    7   33 1    
    23    8    9 1    
    24    8   34 1    
    25    8   35 1    
    26    9   10 2    
    27    9   36 1    
    28   10   11 1    
    29   10   37 1    
    30   11   12 1    
    31   11   38 1    
    32   11   39 1    
    33   12   13 1    
    34   12   40 1    
    35   12   41 1    
    36   13   14 1    
    37   13   42 1    
    38   13   43 1    
    39   14   15 1    
    40   14   44 1    
    41   14   45 1    
    42   15   16 1    
    43   15   46 1    
    44   15   47 1    
    45   16   17 1    
    46   16   48 1    
    47   16   49 1    
    48   17   18 1    
    49   17   50 1    
    50   17   51 1    
    51   18   52 1    
    52   18   53 1    
    53   18   54 1    
@<TRIPOS>SUBSTRUCTURE
     1 ****        1 TEMP              0 ****  ****    0 ROOT 
@<TRIPOS>NORMAL
@<TRIPOS>FF_PBC
FORCE_FIELD_SETUP_FEATURE Force Field Setup information
v1.0  0 0.000000 0.000000 0.000000 0.000000 0.000000 0.000000 NONE 0 0 0 0 1 0 0 0 0 0 0 0 0
