@<TRIPOS>MOLECULE
MOL002170
   27    27     1     1     0
SMALL
GASTEIGER


@<TRIPOS>ATOM
      1 C          -0.544315    1.705555    0.035546 C.3       1 <1>         0.076552 
      2 C           0.943091    1.837255   -0.212188 C.2       1 <1>        -0.048428 
      3 C           1.759430    0.775421   -0.297186 C.2       1 <1>        -0.082049 
      4 C           1.292352   -0.652479   -0.157823 C.3       1 <1>        -0.027830 
      5 C          -0.093489   -0.736851    0.533220 C.3       1 <1>        -0.014346 
      6 C          -1.050980    0.254116   -0.171344 C.3       1 <1>        -0.016212 
      7 O          -1.249285    2.596177   -0.848455 O.3       1 <1>        -0.387492 
      8 C          -0.691258   -2.134818    0.579925 C.2       1 <1>        -0.076228 
      9 C          -1.293487   -2.598759    1.685035 C.2       1 <1>        -0.099436 
     10 C          -0.589935   -2.986019   -0.667985 C.3       1 <1>        -0.043767 
     11 C           1.462674    3.251311   -0.352309 C.3       1 <1>        -0.041374 
     12 H          -0.715039    2.013275    1.082366 H         1 <1>         0.064023 
     13 H           2.823759    0.922821   -0.485961 H         1 <1>         0.057252 
     14 H           2.021394   -1.236043    0.427643 H         1 <1>         0.031315 
     15 H           1.259379   -1.060454   -1.178950 H         1 <1>         0.031315 
     16 H           0.046367   -0.377848    1.567708 H         1 <1>         0.034929 
     17 H          -1.087614    0.039959   -1.250855 H         1 <1>         0.029910 
     18 H          -2.071033    0.156671    0.235181 H         1 <1>         0.029910 
     19 H          -2.190949    2.593798   -0.708812 H         1 <1>         0.210218 
     20 H          -1.380930   -1.995623    2.588201 H         1 <1>         0.053440 
     21 H          -1.722260   -3.599540    1.726329 H         1 <1>         0.053440 
     22 H          -0.901048   -2.414654   -1.554358 H         1 <1>         0.027436 
     23 H           0.447600   -3.325249   -0.803212 H         1 <1>         0.027436 
     24 H          -1.228717   -3.880348   -0.610093 H         1 <1>         0.027436 
     25 H           2.559842    3.297019   -0.424101 H         1 <1>         0.027516 
     26 H           1.152845    3.844521    0.521099 H         1 <1>         0.027516 
     27 H           1.041413    3.710888   -1.258824 H         1 <1>         0.027516 
@<TRIPOS>BOND
     1    1    2 1    
     2    1    6 1    
     3    1    7 1    
     4    1   12 1    
     5    2    3 2    
     6    2   11 1    
     7    3    4 1    
     8    3   13 1    
     9    4    5 1    
    10    4   14 1    
    11    4   15 1    
    12    5    6 1    
    13    5    8 1    
    14    5   16 1    
    15    6   17 1    
    16    6   18 1    
    17    7   19 1    
    18    8    9 2    
    19    8   10 1    
    20    9   20 1    
    21    9   21 1    
    22   10   22 1    
    23   10   23 1    
    24   10   24 1    
    25   11   25 1    
    26   11   26 1    
    27   11   27 1    
@<TRIPOS>SUBSTRUCTURE
     1 ****        1 TEMP              0 ****  ****    0 ROOT 
@<TRIPOS>NORMAL
@<TRIPOS>FF_PBC
FORCE_FIELD_SETUP_FEATURE Force Field Setup information
v1.0  0 0.000000 0.000000 0.000000 0.000000 0.000000 0.000000 NONE 0 0 0 0 1 0 0 0 0 0 0 0 0
