@<TRIPOS>MOLECULE
MOL005020
   45    47     1     1     0
SMALL
GASTEIGER


@<TRIPOS>ATOM
      1 C          -2.864461   -1.311141    0.400793 C.ar      1 <1>         0.080965 
      2 C          -2.345451    0.076465    0.264069 C.ar      1 <1>         0.016453 
      3 C          -0.964644    0.292145    0.094906 C.ar      1 <1>         0.088078 
      4 C          -0.030803   -0.863582    0.105899 C.ar      1 <1>         0.035450 
      5 C          -0.522677   -2.158968    0.284028 C.ar      1 <1>         0.088648 
      6 C          -1.976824   -2.392230    0.426722 C.ar      1 <1>        -0.000873 
      7 C           1.464391   -0.702383   -0.052477 C.2       1 <1>        -0.043619 
      8 C           2.268074   -1.684797    0.375339 C.2       1 <1>        -0.011112 
      9 C           1.634752   -2.938648    0.938894 C.3       1 <1>         0.079914 
     10 O           0.368863   -3.229619    0.312586 O.3       1 <1>        -0.339335 
     11 C           3.774935   -1.524319    0.326167 C.ar      1 <1>         0.010252 
     12 C           4.649873   -2.636513   -0.130652 C.ar      1 <1>        -0.049371 
     13 C           6.041855   -2.490336   -0.131061 C.ar      1 <1>        -0.031212 
     14 C           6.663125   -1.212838    0.282336 C.ar      1 <1>         0.075055 
     15 C           5.841536   -0.150864    0.690145 C.ar      1 <1>        -0.001581 
     16 C           4.365830   -0.312083    0.735115 C.ar      1 <1>         0.082468 
     17 O           3.558322    0.731553    1.199036 O.3       1 <1>        -0.359152 
     18 O           8.055783   -1.090184    0.255495 O.3       1 <1>        -0.359750 
     19 O          -0.480429    1.591289   -0.067131 O.3       1 <1>        -0.358796 
     20 C          -3.315469    1.265366    0.322422 C.3       1 <1>        -0.004341 
     21 C          -3.886332    1.578501   -1.039242 C.2       1 <1>        -0.080815 
     22 C          -4.691851    2.624854   -1.274387 C.2       1 <1>        -0.079306 
     23 C          -5.103202    3.583252   -0.176997 C.3       1 <1>        -0.044040 
     24 C          -5.240514    2.915335   -2.656102 C.3       1 <1>        -0.044040 
     25 O          -4.233798   -1.558740    0.502894 O.3       1 <1>        -0.359385 
     26 H          -2.358042   -3.402814    0.544212 H         1 <1>         0.066939 
     27 H           1.870340    0.205752   -0.497006 H         1 <1>         0.062868 
     28 H           1.480225   -2.788731    2.019098 H         1 <1>         0.061528 
     29 H           2.261797   -3.830137    0.807058 H         1 <1>         0.061528 
     30 H           4.220287   -3.573684   -0.470172 H         1 <1>         0.062512 
     31 H           6.678713   -3.313126   -0.439764 H         1 <1>         0.064340 
     32 H           6.283147    0.797079    0.980728 H         1 <1>         0.066920 
     33 H           4.042742    1.490427    1.502451 H         1 <1>         0.217339 
     34 H           8.390448   -0.248181    0.544721 H         1 <1>         0.217315 
     35 H           0.287518    1.753595    0.468657 H         1 <1>         0.217352 
     36 H          -4.129324    1.020098    1.022136 H         1 <1>         0.035721 
     37 H          -2.792595    2.144809    0.725144 H         1 <1>         0.035721 
     38 H          -3.619196    0.910729   -1.859890 H         1 <1>         0.057473 
     39 H          -5.860447    4.303485   -0.524277 H         1 <1>         0.027427 
     40 H          -5.530810    3.031297    0.674038 H         1 <1>         0.027427 
     41 H          -4.223747    4.150898    0.164460 H         1 <1>         0.027427 
     42 H          -4.884254    2.198744   -3.412158 H         1 <1>         0.027427 
     43 H          -4.928767    3.924050   -2.967478 H         1 <1>         0.027427 
     44 H          -6.340649    2.873482   -2.636660 H         1 <1>         0.027427 
     45 H          -4.742990   -1.041149   -0.110159 H         1 <1>         0.217328 
@<TRIPOS>BOND
     1    1    2 1    
     2    1    6 2    
     3    1   25 1    
     4    2    3 2    
     5    2   20 1    
     6    3    4 1    
     7    3   19 1    
     8    4    5 2    
     9    4    7 1    
    10    5    6 1    
    11    5   10 1    
    12    6   26 1    
    13    7    8 2    
    14    7   27 1    
    15    8    9 1    
    16    8   11 1    
    17    9   10 1    
    18    9   28 1    
    19    9   29 1    
    20   11   12 1    
    21   11   16 2    
    22   12   13 2    
    23   12   30 1    
    24   13   14 1    
    25   13   31 1    
    26   14   15 2    
    27   14   18 1    
    28   15   16 1    
    29   15   32 1    
    30   16   17 1    
    31   17   33 1    
    32   18   34 1    
    33   19   35 1    
    34   20   21 1    
    35   20   36 1    
    36   20   37 1    
    37   21   22 2    
    38   21   38 1    
    39   22   23 1    
    40   22   24 1    
    41   23   39 1    
    42   23   40 1    
    43   23   41 1    
    44   24   42 1    
    45   24   43 1    
    46   24   44 1    
    47   25   45 1    
@<TRIPOS>SUBSTRUCTURE
     1 ****        1 TEMP              0 ****  ****    0 ROOT 
@<TRIPOS>NORMAL
@<TRIPOS>FF_PBC
FORCE_FIELD_SETUP_FEATURE Force Field Setup information
v1.0  0 0.000000 0.000000 0.000000 0.000000 0.000000 0.000000 NONE 0 0 0 0 1 0 0 0 0 0 0 0 0
