@<TRIPOS>MOLECULE
MOL004680
   29    29     1     1     0
SMALL
GASTEIGER


@<TRIPOS>ATOM
      1 C           0.490199    1.225735   -0.087181 C.2       1 <1>        -0.081931 
      2 C           0.703704   -0.274636   -0.159432 C.3       1 <1>        -0.020384 
      3 C          -0.637077   -1.005829    0.137210 C.3       1 <1>        -0.043641 
      4 C          -1.794055   -0.379845   -0.679873 C.3       1 <1>        -0.020108 
      5 C          -2.019733    1.105932   -0.291787 C.3       1 <1>         0.081383 
      6 C          -0.704453    1.831253   -0.140027 C.2       1 <1>        -0.056784 
      7 C          -2.886637    1.805146   -1.372118 C.3       1 <1>        -0.032445 
      8 C           1.861483   -0.743273    0.788223 C.3       1 <1>        -0.040450 
      9 C           1.896118   -2.288450    0.984001 C.3       1 <1>        -0.062133 
     10 C           3.259742   -0.295190    0.263169 C.3       1 <1>        -0.062133 
     11 O          -2.756606    1.219883    0.937932 O.3       1 <1>        -0.384819 
     12 H           1.349886    1.887206    0.008089 H         1 <1>         0.057270 
     13 H           0.990971   -0.509115   -1.197787 H         1 <1>         0.034545 
     14 H          -0.569165   -2.067669   -0.151791 H         1 <1>         0.027196 
     15 H          -0.860727   -0.955551    1.213548 H         1 <1>         0.027196 
     16 H          -1.532626   -0.452181   -1.748370 H         1 <1>         0.029609 
     17 H          -2.729478   -0.939805   -0.517096 H         1 <1>         0.029609 
     18 H          -0.750487    2.919214   -0.064105 H         1 <1>         0.059717 
     19 H          -2.361963    1.829626   -2.339597 H         1 <1>         0.026037 
     20 H          -3.839083    1.267443   -1.496177 H         1 <1>         0.026037 
     21 H          -3.110607    2.839413   -1.068508 H         1 <1>         0.026037 
     22 H           1.699530   -0.287325    1.780606 H         1 <1>         0.030110 
     23 H           2.777957   -2.588331    1.571239 H         1 <1>         0.023251 
     24 H           1.013639   -2.650254    1.532467 H         1 <1>         0.023251 
     25 H           1.943636   -2.793984    0.007204 H         1 <1>         0.023251 
     26 H           4.053261   -0.624223    0.952187 H         1 <1>         0.023251 
     27 H           3.349762    0.795070    0.170433 H         1 <1>         0.023251 
     28 H           3.455241   -0.742637   -0.723492 H         1 <1>         0.023251 
     29 H          -2.292532    0.872480    1.690931 H         1 <1>         0.210579 
@<TRIPOS>BOND
     1    1    2 1    
     2    1    6 2    
     3    1   12 1    
     4    2    3 1    
     5    2    8 1    
     6    2   13 1    
     7    3    4 1    
     8    3   14 1    
     9    3   15 1    
    10    4    5 1    
    11    4   16 1    
    12    4   17 1    
    13    5    6 1    
    14    5    7 1    
    15    5   11 1    
    16    6   18 1    
    17    7   19 1    
    18    7   20 1    
    19    7   21 1    
    20    8    9 1    
    21    8   10 1    
    22    8   22 1    
    23    9   23 1    
    24    9   24 1    
    25    9   25 1    
    26   10   26 1    
    27   10   27 1    
    28   10   28 1    
    29   11   29 1    
@<TRIPOS>SUBSTRUCTURE
     1 ****        1 TEMP              0 ****  ****    0 ROOT 
@<TRIPOS>NORMAL
@<TRIPOS>FF_PBC
FORCE_FIELD_SETUP_FEATURE Force Field Setup information
v1.0  0 0.000000 0.000000 0.000000 0.000000 0.000000 0.000000 NONE 0 0 0 0 1 0 0 0 0 0 0 0 0
