@<TRIPOS>MOLECULE
MOL009859
   23    22     1     1     0
SMALL
GASTEIGER


@<TRIPOS>ATOM
      1 C          -3.039965    0.119318   -0.555213 C.2       1 <1>         0.145944 
      2 C          -1.571457   -0.037433   -0.381086 C.2       1 <1>        -0.012357 
      3 C          -0.824960    1.081027   -0.463118 C.2       1 <1>        -0.077815 
      4 C           0.676336    1.241004   -0.324948 C.3       1 <1>        -0.034367 
      5 C           1.165285    0.997267    1.128802 C.3       1 <1>        -0.052450 
      6 C           2.680953    1.290486    1.285725 C.3       1 <1>        -0.064998 
      7 O          -3.816126   -0.780745   -0.281889 O.2       1 <1>        -0.296044 
      8 C          -1.046688   -1.443312   -0.117434 C.3       1 <1>        -0.027798 
      9 C           0.150961   -1.943412   -0.972120 C.3       1 <1>        -0.061177 
     10 H          -3.490771    1.038404   -0.928564 H         1 <1>         0.107792 
     11 H          -1.348670    2.023103   -0.646392 H         1 <1>         0.057567 
     12 H           1.204298    0.611299   -1.052045 H         1 <1>         0.030742 
     13 H           0.938270    2.280435   -0.586327 H         1 <1>         0.030742 
     14 H           0.981393   -0.045717    1.425029 H         1 <1>         0.026558 
     15 H           0.599277    1.652093    1.812966 H         1 <1>         0.026558 
     16 H           2.995595    1.097744    2.323870 H         1 <1>         0.022987 
     17 H           3.268803    0.642693    0.616548 H         1 <1>         0.022987 
     18 H           2.902127    2.341980    1.045640 H         1 <1>         0.022987 
     19 H          -1.858614   -2.155296   -0.337444 H         1 <1>         0.031138 
     20 H          -0.827160   -1.553736    0.954944 H         1 <1>         0.031138 
     21 H           0.182157   -3.045899   -0.975981 H         1 <1>         0.023289 
     22 H           1.113612   -1.605255   -0.563895 H         1 <1>         0.023289 
     23 H           0.047820   -1.595732   -2.012459 H         1 <1>         0.023289 
@<TRIPOS>BOND
     1    1    2 1    
     2    1    7 2    
     3    1   10 1    
     4    2    3 2    
     5    2    8 1    
     6    3    4 1    
     7    3   11 1    
     8    4    5 1    
     9    4   12 1    
    10    4   13 1    
    11    5    6 1    
    12    5   14 1    
    13    5   15 1    
    14    6   16 1    
    15    6   17 1    
    16    6   18 1    
    17    8    9 1    
    18    8   19 1    
    19    8   20 1    
    20    9   21 1    
    21    9   22 1    
    22    9   23 1    
@<TRIPOS>SUBSTRUCTURE
     1 ****        1 TEMP              0 ****  ****    0 ROOT 
@<TRIPOS>NORMAL
@<TRIPOS>FF_PBC
FORCE_FIELD_SETUP_FEATURE Force Field Setup information
v1.0  0 0.000000 0.000000 0.000000 0.000000 0.000000 0.000000 NONE 0 0 0 0 1 0 0 0 0 0 0 0 0
