@<TRIPOS>MOLECULE
MOL001468
   15    14     1     1     0
SMALL
GASTEIGER


@<TRIPOS>ATOM
      1 O           0.946920   -1.189194    0.601689 O.3       1 <1>        -0.381260 
      2 O           3.034644    0.394318    0.222089 O.3       1 <1>        -0.329315 
      3 O          -2.984065    0.297667    0.085812 O.3       1 <1>        -0.331193 
      4 O           1.803761    1.959391   -0.752964 O.2       1 <1>        -0.262277 
      5 O          -1.665064   -1.492600   -0.208324 O.2       1 <1>        -0.265069 
      6 C           0.706808   -0.122527   -0.341641 C.3       1 <1>         0.148723 
      7 C          -0.606681    0.636210   -0.016501 C.3       1 <1>         0.068259 
      8 C           1.886475    0.826315   -0.308615 C.2       1 <1>         0.288922 
      9 C          -1.793633   -0.287207   -0.057620 C.2       1 <1>         0.262580 
     10 H           0.657942   -0.531713   -1.365552 H         1 <1>         0.070324 
     11 H          -0.771780    1.450627   -0.738968 H         1 <1>         0.039665 
     12 H          -0.535637    1.067520    0.993763 H         1 <1>         0.039665 
     13 H           0.258294   -1.850285    0.595324 H         1 <1>         0.210476 
     14 H           2.960493   -0.492537    0.560597 H         1 <1>         0.220292 
     15 H          -3.694959   -0.333439    0.052563 H         1 <1>         0.220209 
@<TRIPOS>BOND
     1    6    1 1    
     2    1   13 1    
     3    8    2 1    
     4    2   14 1    
     5    9    3 1    
     6    3   15 1    
     7    8    4 2    
     8    9    5 2    
     9    7    6 1    
    10    6    8 1    
    11    6   10 1    
    12    7    9 1    
    13    7   11 1    
    14    7   12 1    
@<TRIPOS>SUBSTRUCTURE
     1 ****        1 TEMP              0 ****  ****    0 ROOT 
@<TRIPOS>NORMAL
@<TRIPOS>FF_PBC
FORCE_FIELD_SETUP_FEATURE Force Field Setup information
v1.0  0 0.000000 0.000000 0.000000 0.000000 0.000000 0.000000 NONE 0 0 0 0 1 0 0 0 0 0 0 0 0
