@<TRIPOS>MOLECULE
MOL006961
   33    35     1     1     0
SMALL
GASTEIGER


@<TRIPOS>ATOM
      1 O          -3.188645    1.539810    3.464542 O.3       1 <1>        -0.392364 
      2 C          -1.785317    1.253852    3.609878 C.3       1 <1>         0.073153 
      3 C          -1.399895    0.109271    2.640710 C.3       1 <1>         0.116889 
      4 C           0.097522   -0.305112    2.714053 C.3       1 <1>         0.118333 
      5 O           0.169333   -1.707260    3.030497 O.3       1 <1>        -0.386238 
      6 C           0.615330   -0.071685    1.272383 C.3       1 <1>         0.172815 
      7 O           1.645381   -1.019989    0.930008 O.3       1 <1>        -0.380303 
      8 C          -0.688747   -0.241719    0.464911 C.3       1 <1>         0.298102 
      9 O          -1.594868    0.513899    1.273691 O.3       1 <1>        -0.309356 
     10 N          -0.649151    0.372718   -0.885207 N.ar      1 <1>        -0.131600 
     11 C          -1.479869    1.412040   -1.334196 C.ar      1 <1>         0.271980 
     12 N          -1.150173    1.617229   -2.618442 N.ar      1 <1>        -0.180096 
     13 C          -0.151561    0.733383   -2.926816 C.ar      1 <1>         0.223259 
     14 C           0.595680    0.513747   -4.214401 C.2       1 <1>         0.277032 
     15 O           0.337126    1.181467   -5.201138 O.2       1 <1>        -0.267798 
     16 N           1.542175   -0.451413   -4.185715 N.am      1 <1>        -0.252619 
     17 C           1.781352   -1.161536   -3.047290 C.2       1 <1>         0.190134 
     18 N           2.706655   -2.079239   -3.077163 N.pl3     1 <1>        -0.330595 
     19 N           1.122130   -0.941196   -1.976084 N.2       1 <1>        -0.154920 
     20 C           0.155656   -0.006544   -1.899551 C.ar      1 <1>         0.342195 
     21 H          -3.494428    2.230098    4.047085 H         1 <1>         0.209508 
     22 H          -1.567469    0.939974    4.645162 H         1 <1>         0.058372 
     23 H          -1.184120    2.146237    3.368126 H         1 <1>         0.058372 
     24 H          -2.045521   -0.761854    2.847662 H         1 <1>         0.064805 
     25 H           0.675004    0.281082    3.451020 H         1 <1>         0.064917 
     26 H           1.062308   -2.040859    2.984799 H         1 <1>         0.210008 
     27 H           0.969678    0.969426    1.171184 H         1 <1>         0.071554 
     28 H           1.992647   -0.920762    0.048577 H         1 <1>         0.210285 
     29 H          -0.977690   -1.307624    0.418336 H         1 <1>         0.144492 
     30 H          -2.237544    1.946658   -0.765693 H         1 <1>         0.162032 
     31 H           2.052053   -0.616921   -5.032143 H         1 <1>         0.157823 
     32 H           2.907848   -2.632330   -2.230345 H         1 <1>         0.144915 
     33 H           3.247332   -2.270492   -3.933937 H         1 <1>         0.144915 
@<TRIPOS>BOND
     1    1    2 1    
     2    1   21 1    
     3    2    3 1    
     4    2   22 1    
     5    2   23 1    
     6    3    4 1    
     7    3    9 1    
     8    3   24 1    
     9    4    5 1    
    10    4    6 1    
    11    4   25 1    
    12    5   26 1    
    13    6    7 1    
    14    6    8 1    
    15    6   27 1    
    16    7   28 1    
    17    8    9 1    
    18    8   10 1    
    19    8   29 1    
    20   10   11 1    
    21   10   20 1    
    22   11   12 2    
    23   11   30 1    
    24   12   13 1    
    25   13   14 1    
    26   13   20 2    
    27   14   15 2    
    28   14   16 1    
    29   16   17 1    
    30   16   31 1    
    31   17   18 1    
    32   17   19 2    
    33   18   32 1    
    34   18   33 1    
    35   19   20 1    
@<TRIPOS>SUBSTRUCTURE
     1 ****        1 TEMP              0 ****  ****    0 ROOT 
@<TRIPOS>NORMAL
@<TRIPOS>FF_PBC
FORCE_FIELD_SETUP_FEATURE Force Field Setup information
v1.0  0 0.000000 0.000000 0.000000 0.000000 0.000000 0.000000 NONE 0 0 0 0 1 0 0 0 0 0 0 0 0
