@<TRIPOS>MOLECULE
MOL004859
   26    25     1     1     0
SMALL
GASTEIGER


@<TRIPOS>ATOM
      1 C           0.085191   -0.763296   -0.515733 C.3       1 <1>        -0.041552 
      2 C          -1.249927   -0.014368   -0.193746 C.3       1 <1>        -0.050474 
      3 C           1.369043    0.135478   -0.449594 C.3       1 <1>        -0.044135 
      4 C           0.218779   -2.033006    0.378329 C.3       1 <1>        -0.062181 
      5 C          -1.342075    0.549829    1.252342 C.3       1 <1>        -0.055661 
      6 C           2.639486   -0.633812   -0.920127 C.3       1 <1>        -0.062422 
      7 C           1.225676    1.432996   -1.300493 C.3       1 <1>        -0.062422 
      8 C          -2.647440    1.362399    1.454922 C.3       1 <1>        -0.065268 
      9 H          -0.012751   -1.115992   -1.558526 H         1 <1>         0.030062 
     10 H          -2.090638   -0.713010   -0.336164 H         1 <1>         0.026785 
     11 H          -1.410732    0.798351   -0.918016 H         1 <1>         0.026785 
     12 H           1.555240    0.437418    0.593790 H         1 <1>         0.029806 
     13 H           0.951846   -2.741509   -0.034468 H         1 <1>         0.023250 
     14 H          -0.739816   -2.570085    0.446000 H         1 <1>         0.023250 
     15 H           0.535253   -1.760502    1.395818 H         1 <1>         0.023250 
     16 H          -0.492306    1.215420    1.466212 H         1 <1>         0.026273 
     17 H          -1.329362   -0.277999    1.979591 H         1 <1>         0.026273 
     18 H           3.516131    0.032550   -0.938271 H         1 <1>         0.023242 
     19 H           2.887848   -1.465167   -0.243429 H         1 <1>         0.023242 
     20 H           2.492219   -1.034368   -1.934648 H         1 <1>         0.023242 
     21 H           2.178751    1.981892   -1.347630 H         1 <1>         0.023242 
     22 H           0.485025    2.121335   -0.867597 H         1 <1>         0.023242 
     23 H           0.923872    1.181299   -2.328955 H         1 <1>         0.023242 
     24 H          -2.716500    1.717589    2.495249 H         1 <1>         0.022978 
     25 H          -3.529905    0.740642    1.239249 H         1 <1>         0.022978 
     26 H          -2.660995    2.238601    0.787574 H         1 <1>         0.022978 
@<TRIPOS>BOND
     1    1    2 1    
     2    1    3 1    
     3    1    4 1    
     4    1    9 1    
     5    2    5 1    
     6    2   10 1    
     7    2   11 1    
     8    3    6 1    
     9    3    7 1    
    10    3   12 1    
    11    4   13 1    
    12    4   14 1    
    13    4   15 1    
    14    5    8 1    
    15    5   16 1    
    16    5   17 1    
    17    6   18 1    
    18    6   19 1    
    19    6   20 1    
    20    7   21 1    
    21    7   22 1    
    22    7   23 1    
    23    8   24 1    
    24    8   25 1    
    25    8   26 1    
@<TRIPOS>SUBSTRUCTURE
     1 ****        1 TEMP              0 ****  ****    0 ROOT 
@<TRIPOS>NORMAL
@<TRIPOS>FF_PBC
FORCE_FIELD_SETUP_FEATURE Force Field Setup information
v1.0  0 0.000000 0.000000 0.000000 0.000000 0.000000 0.000000 NONE 0 0 0 0 1 0 0 0 0 0 0 0 0
