@<TRIPOS>MOLECULE
MOL004029
   27    29     1     1     0
SMALL
GASTEIGER


@<TRIPOS>ATOM
      1 C           0.520132   -0.068385    0.222997 C.ar      1 <1>         0.083201 
      2 C          -0.401768   -1.238165    0.230218 C.ar      1 <1>         0.105489 
      3 C           0.028686    1.245662    0.028283 C.ar      1 <1>         0.104858 
      4 C           2.011558   -0.192434    0.421443 C.2       1 <1>         0.193198 
      5 C          -1.771510   -0.974289    0.039501 C.ar      1 <1>         0.117731 
      6 O           0.094617   -2.526221    0.437664 O.3       1 <1>        -0.346216 
      7 C          -1.421671    1.477280   -0.195076 C.ar      1 <1>         0.074359 
      8 O           0.885395    2.348970    0.040214 O.3       1 <1>        -0.312621 
      9 C           2.795041    1.049795    0.447324 C.2       1 <1>         0.011917 
     10 O           2.555909   -1.275508    0.552450 O.2       1 <1>        -0.287028 
     11 C          -2.280063    0.385392   -0.189731 C.ar      1 <1>         0.367819 
     12 C          -2.991431   -1.793160    0.006396 C.ar      1 <1>         0.053228 
     13 C          -0.138072   -3.571533   -0.520768 C.3       1 <1>         0.043084 
     14 C           2.205239    2.236814    0.261842 C.2       1 <1>         0.061023 
     15 O          -3.641237    0.408858   -0.385386 O.2       1 <1>        -0.212229 
     16 C          -4.026097   -0.912138   -0.248174 C.ar      1 <1>         0.322710 
     17 C           2.956107    3.547119    0.283685 C.3       1 <1>        -0.017388 
     18 H          -1.797369    2.480517   -0.360364 H         1 <1>         0.073822 
     19 H           3.870933    0.987436    0.620265 H         1 <1>         0.067856 
     20 H          -3.074968   -2.860993    0.153060 H         1 <1>         0.071423 
     21 H           0.672496   -4.303646   -0.406385 H         1 <1>         0.052870 
     22 H          -1.084755   -4.090814   -0.335944 H         1 <1>         0.052870 
     23 H          -0.118520   -3.201370   -1.554692 H         1 <1>         0.052870 
     24 H          -5.065226   -1.222153   -0.334716 H         1 <1>         0.176011 
     25 H           2.261454    4.398282    0.219399 H         1 <1>         0.029714 
     26 H           3.531176    3.639745    1.218186 H         1 <1>         0.029714 
     27 H           3.650477    3.597437   -0.568934 H         1 <1>         0.029714 
@<TRIPOS>BOND
     1    1    2 1    
     2    1    3 2    
     3    1    4 1    
     4    2    5 2    
     5    2    6 1    
     6    3    7 1    
     7    3    8 1    
     8    4    9 1    
     9    4   10 2    
    10    5   11 1    
    11    5   12 1    
    12    6   13 1    
    13    7   11 2    
    14    7   18 1    
    15    8   14 1    
    16    9   14 2    
    17    9   19 1    
    18   11   15 1    
    19   12   16 2    
    20   12   20 1    
    21   13   21 1    
    22   13   22 1    
    23   13   23 1    
    24   14   17 1    
    25   15   16 1    
    26   16   24 1    
    27   17   25 1    
    28   17   26 1    
    29   17   27 1    
@<TRIPOS>SUBSTRUCTURE
     1 ****        1 TEMP              0 ****  ****    0 ROOT 
@<TRIPOS>NORMAL
@<TRIPOS>FF_PBC
FORCE_FIELD_SETUP_FEATURE Force Field Setup information
v1.0  0 0.000000 0.000000 0.000000 0.000000 0.000000 0.000000 NONE 0 0 0 0 1 0 0 0 0 0 0 0 0
