@<TRIPOS>MOLECULE
MOL004625
  103   108     1     1     0
SMALL
GASTEIGER


@<TRIPOS>ATOM
      1 O           2.329617   -4.781896    1.986019 O.3       1 <1>        -0.332688 
      2 C           3.350160   -5.801864    1.993570 C.3       1 <1>         0.174377 
      3 C           2.712386   -7.186469    2.261898 C.3       1 <1>         0.119030 
      4 C           1.914551   -7.143667    3.588961 C.3       1 <1>         0.114497 
      5 C           0.903401   -5.970516    3.564617 C.3       1 <1>         0.134148 
      6 C           1.632890   -4.643133    3.236867 C.3       1 <1>         0.188741 
      7 C           4.059537   -5.782550    0.660589 C.2       1 <1>         0.291467 
      8 O           1.230782   -8.400657    3.752588 O.3       1 <1>        -0.386388 
      9 O           3.756930   -8.174195    2.342350 O.3       1 <1>        -0.386033 
     10 O           0.258707   -5.903627    4.851783 O.3       1 <1>        -0.384104 
     11 O           4.881685   -4.747243    0.463869 O.3       1 <1>        -0.329249 
     12 O           3.897010   -6.648998   -0.185522 O.2       1 <1>        -0.262180 
     13 O           0.607787   -3.632251    3.134161 O.3       1 <1>        -0.344878 
     14 C           1.063958   -2.261066    3.005303 C.3       1 <1>         0.067174 
     15 C          -0.185275   -1.337536    3.201123 C.3       1 <1>        -0.005229 
     16 C          -1.181164   -1.518715    1.972128 C.3       1 <1>        -0.027826 
     17 C          -0.616712   -1.642913    0.497887 C.3       1 <1>        -0.024959 
     18 C           0.773446   -2.388045    0.522297 C.3       1 <1>        -0.044711 
     19 C           1.742434   -1.952102    1.646253 C.3       1 <1>        -0.025470 
     20 C          -2.439248   -0.587445    1.974144 C.3       1 <1>        -0.048609 
     21 C          -2.207360    0.839631    1.399335 C.3       1 <1>        -0.046267 
     22 C          -1.608729    0.884202   -0.044590 C.3       1 <1>        -0.019291 
     23 C          -0.477489   -0.203699   -0.178856 C.3       1 <1>        -0.025735 
     24 C          -1.001619    2.334332   -0.393443 C.3       1 <1>        -0.002789 
     25 C          -0.415997    2.334371   -1.803896 C.2       1 <1>        -0.063151 
     26 C          -0.016669    1.173276   -2.351025 C.2       1 <1>        -0.083644 
     27 C          -0.017619   -0.180305   -1.671359 C.3       1 <1>        -0.030614 
     28 C          -2.094448    3.448783   -0.217200 C.3       1 <1>        -0.016610 
     29 C          -1.820935    4.816962   -0.898611 C.3       1 <1>         0.064286 
     30 C          -1.458958    4.666652   -2.416118 C.3       1 <1>         0.026309 
     31 C          -0.242695    3.688468   -2.510749 C.3       1 <1>        -0.008787 
     32 C          -1.033279    6.073272   -2.965131 C.3       1 <1>        -0.041883 
     33 C          -0.410087    6.058697   -4.389835 C.3       1 <1>        -0.047178 
     34 C           0.774549    5.059096   -4.516406 C.3       1 <1>        -0.034297 
     35 C           0.351854    3.663328   -3.953852 C.3       1 <1>        -0.040648 
     36 C           0.296501    0.120952    3.498551 C.3       1 <1>        -0.057181 
     37 C          -1.521893   -2.659750   -0.306192 C.3       1 <1>        -0.059009 
     38 C          -2.785601    0.536336   -1.030368 C.3       1 <1>        -0.058490 
     39 C           1.137028    4.897439   -6.026270 C.3       1 <1>        -0.059793 
     40 C          -2.696767    4.165448   -3.230301 C.3       1 <1>         0.052730 
     41 O          -3.003571    5.615058   -0.674146 O.3       1 <1>        -0.391114 
     42 C          -0.862267   -1.802774    4.541950 C.3       1 <1>        -0.057181 
     43 C           0.241157    2.774959    0.473695 C.3       1 <1>        -0.055242 
     44 C           2.046204    5.619884   -3.799268 C.3       1 <1>        -0.059793 
     45 H          -1.002148    5.320551   -0.360051 H         1 <1>         0.059982 
     46 O          -3.001613    2.787130   -2.983314 O.3       1 <1>        -0.394355 
     47 H           4.109423   -5.590789    2.763521 H         1 <1>         0.072940 
     48 H           2.015196   -7.422067    1.438397 H         1 <1>         0.065129 
     49 H           2.623779   -6.995030    4.421903 H         1 <1>         0.064771 
     50 H           0.159236   -6.164955    2.772762 H         1 <1>         0.067096 
     51 H           2.318358   -4.405271    4.067804 H         1 <1>         0.093763 
     52 H           0.709941   -8.420038    4.551020 H         1 <1>         0.210005 
     53 H           3.408181   -9.045324    2.511649 H         1 <1>         0.210020 
     54 H          -0.374888   -5.192915    4.891189 H         1 <1>         0.210110 
     55 H           5.295549   -4.781404   -0.391807 H         1 <1>         0.220293 
     56 H           1.792066   -2.065534    3.810621 H         1 <1>         0.060224 
     57 H          -1.580535   -2.523066    2.186136 H         1 <1>         0.031210 
     58 H           1.290891   -2.316631   -0.442273 H         1 <1>         0.027149 
     59 H           0.647432   -3.467928    0.688529 H         1 <1>         0.027149 
     60 H           2.691559   -2.503224    1.562647 H         1 <1>         0.029047 
     61 H           2.023654   -0.895988    1.555294 H         1 <1>         0.029047 
     62 H          -2.837460   -0.484847    2.993656 H         1 <1>         0.026846 
     63 H          -3.251547   -1.049384    1.395054 H         1 <1>         0.026846 
     64 H          -3.172912    1.370945    1.421193 H         1 <1>         0.027096 
     65 H          -1.579389    1.383327    2.096633 H         1 <1>         0.027096 
     66 H           0.357750    0.191742    0.390446 H         1 <1>         0.031460 
     67 H           0.365237    1.118831   -3.367793 H         1 <1>         0.057198 
     68 H           1.015596   -0.543775   -1.769631 H         1 <1>         0.031042 
     69 H          -0.657160   -0.819952   -2.292696 H         1 <1>         0.031042 
     70 H          -2.246995    3.632667    0.858267 H         1 <1>         0.029875 
     71 H          -3.069537    3.166916   -0.615280 H         1 <1>         0.029875 
     72 H           0.564269    4.146656   -1.928823 H         1 <1>         0.035286 
     73 H          -1.906031    6.743600   -3.009807 H         1 <1>         0.027247 
     74 H          -0.308294    6.539345   -2.280893 H         1 <1>         0.027247 
     75 H          -0.055019    7.073965   -4.633904 H         1 <1>         0.027063 
     76 H          -1.177604    5.822175   -5.140192 H         1 <1>         0.027063 
     77 H          -0.384547    3.185597   -4.617484 H         1 <1>         0.027632 
     78 H           1.273544    3.061603   -3.977575 H         1 <1>         0.027632 
     79 H          -0.506639    0.728458    3.937865 H         1 <1>         0.023587 
     80 H           1.104946    0.123461    4.245228 H         1 <1>         0.023587 
     81 H           0.679987    0.637638    2.616399 H         1 <1>         0.023587 
     82 H          -2.589935   -2.446618   -0.318779 H         1 <1>         0.023525 
     83 H          -1.180826   -2.786662   -1.341310 H         1 <1>         0.023525 
     84 H          -1.493500   -3.667645    0.136556 H         1 <1>         0.023525 
     85 H          -3.126937   -0.485764   -0.930479 H         1 <1>         0.023542 
     86 H          -3.702149    1.116048   -0.872499 H         1 <1>         0.023542 
     87 H          -2.506894    0.647808   -2.082213 H         1 <1>         0.023542 
     88 H           1.409056    5.868495   -6.468159 H         1 <1>         0.023499 
     89 H           0.289239    4.491304   -6.599353 H         1 <1>         0.023499 
     90 H           1.989089    4.211428   -6.151034 H         1 <1>         0.023499 
     91 H          -3.570957    4.790662   -2.983742 H         1 <1>         0.056353 
     92 H          -2.531492    4.242844   -4.312875 H         1 <1>         0.056353 
     93 H          -2.924700    6.529418   -0.922940 H         1 <1>         0.209802 
     94 H          -0.125038   -1.814486    5.359919 H         1 <1>         0.023587 
     95 H          -1.676493   -1.137818    4.861105 H         1 <1>         0.023587 
     96 H          -1.285136   -2.815540    4.472916 H         1 <1>         0.023587 
     97 H           0.073163    2.707157    1.552095 H         1 <1>         0.023830 
     98 H           1.159092    2.220100    0.232230 H         1 <1>         0.023830 
     99 H           0.518605    3.822004    0.319968 H         1 <1>         0.023830 
    100 H           2.880391    4.906305   -3.879570 H         1 <1>         0.023499 
    101 H           2.366225    6.560343   -4.273461 H         1 <1>         0.023499 
    102 H           1.893469    5.833735   -2.734342 H         1 <1>         0.023499 
    103 H          -3.770450    2.472068   -3.450711 H         1 <1>         0.209421 
@<TRIPOS>BOND
     1    1    2 1    
     2    1    6 1    
     3    2    3 1    
     4    2    7 1    
     5    2   47 1    
     6    3    4 1    
     7    3    9 1    
     8    3   48 1    
     9    4    5 1    
    10    4    8 1    
    11    4   49 1    
    12    5    6 1    
    13    5   10 1    
    14    5   50 1    
    15    6   13 1    
    16    6   51 1    
    17    7   11 1    
    18    7   12 2    
    19    8   52 1    
    20    9   53 1    
    21   10   54 1    
    22   11   55 1    
    23   13   14 1    
    24   14   15 1    
    25   14   19 1    
    26   14   56 1    
    27   15   16 1    
    28   15   36 1    
    29   15   42 1    
    30   16   17 1    
    31   16   20 1    
    32   16   57 1    
    33   17   18 1    
    34   17   23 1    
    35   17   37 1    
    36   18   19 1    
    37   18   58 1    
    38   18   59 1    
    39   19   60 1    
    40   19   61 1    
    41   20   21 1    
    42   20   62 1    
    43   20   63 1    
    44   21   22 1    
    45   21   64 1    
    46   21   65 1    
    47   22   23 1    
    48   22   24 1    
    49   22   38 1    
    50   23   27 1    
    51   23   66 1    
    52   24   25 1    
    53   24   28 1    
    54   24   43 1    
    55   25   26 2    
    56   25   31 1    
    57   26   27 1    
    58   26   67 1    
    59   27   68 1    
    60   27   69 1    
    61   28   29 1    
    62   28   70 1    
    63   28   71 1    
    64   29   30 1    
    65   29   41 1    
    66   29   45 1    
    67   30   31 1    
    68   30   32 1    
    69   30   40 1    
    70   31   35 1    
    71   31   72 1    
    72   32   33 1    
    73   32   73 1    
    74   32   74 1    
    75   33   34 1    
    76   33   75 1    
    77   33   76 1    
    78   34   35 1    
    79   34   39 1    
    80   34   44 1    
    81   35   77 1    
    82   35   78 1    
    83   36   79 1    
    84   36   80 1    
    85   36   81 1    
    86   37   82 1    
    87   37   83 1    
    88   37   84 1    
    89   38   85 1    
    90   38   86 1    
    91   38   87 1    
    92   39   88 1    
    93   39   89 1    
    94   39   90 1    
    95   40   46 1    
    96   40   91 1    
    97   40   92 1    
    98   41   93 1    
    99   42   94 1    
   100   42   95 1    
   101   42   96 1    
   102   43   97 1    
   103   43   98 1    
   104   43   99 1    
   105   44  100 1    
   106   44  101 1    
   107   44  102 1    
   108   46  103 1    
@<TRIPOS>SUBSTRUCTURE
     1 ****        1 TEMP              0 ****  ****    0 ROOT 
@<TRIPOS>NORMAL
@<TRIPOS>FF_PBC
FORCE_FIELD_SETUP_FEATURE Force Field Setup information
v1.0  0 0.000000 0.000000 0.000000 0.000000 0.000000 0.000000 NONE 0 0 0 0 1 0 0 0 0 0 0 0 0
