@<TRIPOS>MOLECULE
MOL002467
   47    47     1     1     0
SMALL
GASTEIGER


@<TRIPOS>ATOM
      1 C           0.288086   -1.631040    1.400626 C.3       1 <1>        -0.020924 
      2 C          -0.319401   -0.253042    1.024194 C.3       1 <1>         0.009887 
      3 C           0.751755    0.756767    0.682589 C.2       1 <1>         0.136114 
      4 C           0.308831    2.167833    0.370405 C.3       1 <1>         0.031865 
      5 C           1.477935    3.190478    0.292676 C.3       1 <1>         0.061899 
      6 C           2.413417    2.957206   -0.937074 C.3       1 <1>        -0.026454 
      7 C           2.153217    3.923533   -2.130690 C.3       1 <1>        -0.050721 
      8 C           0.735496    3.784536   -2.750719 C.3       1 <1>        -0.053226 
      9 C           0.582975    4.675373   -4.014698 C.3       1 <1>        -0.055910 
     10 C          -0.838332    4.553882   -4.624820 C.3       1 <1>        -0.065276 
     11 O           1.927203    0.428406    0.657230 O.2       1 <1>        -0.297311 
     12 C          -0.712158   -2.728429    1.801858 C.ar      1 <1>        -0.044363 
     13 C          -0.149675   -4.025069    2.253655 C.ar      1 <1>        -0.025965 
     14 C          -0.978878   -5.085755    2.632663 C.ar      1 <1>         0.105659 
     15 C          -2.454773   -4.929114    2.596125 C.ar      1 <1>         0.102451 
     16 C          -3.003216   -3.697177    2.168617 C.ar      1 <1>        -0.029141 
     17 C          -2.119173   -2.576904    1.765130 C.ar      1 <1>        -0.055971 
     18 O          -0.403450   -6.288235    3.046662 O.3       1 <1>        -0.345341 
     19 C          -0.488246   -7.340692    2.072498 C.3       1 <1>         0.043136 
     20 O          -3.276909   -5.994245    2.981992 O.3       1 <1>        -0.357269 
     21 O           2.187183    3.087247    1.542458 O.3       1 <1>        -0.391370 
     22 H           0.975877   -1.488452    2.249886 H         1 <1>         0.031720 
     23 H           0.868487   -2.011313    0.544767 H         1 <1>         0.031720 
     24 H          -0.975477   -0.360129    0.146216 H         1 <1>         0.034471 
     25 H          -0.905903    0.129542    1.874122 H         1 <1>         0.034471 
     26 H          -0.257019    2.148877   -0.571333 H         1 <1>         0.036674 
     27 H          -0.370557    2.493007    1.173971 H         1 <1>         0.036674 
     28 H           1.051533    4.208537    0.241141 H         1 <1>         0.059722 
     29 H           2.341188    1.919585   -1.297596 H         1 <1>         0.029013 
     30 H           3.458405    3.114033   -0.622349 H         1 <1>         0.029013 
     31 H           2.899940    3.708395   -2.913860 H         1 <1>         0.026608 
     32 H           2.307686    4.963856   -1.799743 H         1 <1>         0.026608 
     33 H          -0.026043    4.091972   -2.017429 H         1 <1>         0.026521 
     34 H           0.557796    2.732043   -3.025327 H         1 <1>         0.026521 
     35 H           1.324246    4.373454   -4.773615 H         1 <1>         0.026265 
     36 H           0.771622    5.729314   -3.749586 H         1 <1>         0.026265 
     37 H          -0.920762    5.186281   -5.523397 H         1 <1>         0.022978 
     38 H          -1.598605    4.879393   -3.897715 H         1 <1>         0.022978 
     39 H          -1.046132    3.510893   -4.911099 H         1 <1>         0.022978 
     40 H           0.925522   -4.162924    2.292603 H         1 <1>         0.064684 
     41 H          -4.078278   -3.559884    2.130441 H         1 <1>         0.064412 
     42 H          -2.578340   -1.650089    1.444174 H         1 <1>         0.062110 
     43 H          -0.003180   -8.235922    2.489232 H         1 <1>         0.052871 
     44 H           0.034135   -7.054684    1.145764 H         1 <1>         0.052871 
     45 H          -1.535577   -7.585823    1.838002 H         1 <1>         0.052871 
     46 H          -4.197155   -5.772193    3.062991 H         1 <1>         0.217422 
     47 H           2.895002    3.717073    1.638059 H         1 <1>         0.209791 
@<TRIPOS>BOND
     1    1    2 1    
     2    1   12 1    
     3    1   22 1    
     4    1   23 1    
     5    2    3 1    
     6    2   24 1    
     7    2   25 1    
     8    3    4 1    
     9    3   11 2    
    10    4    5 1    
    11    4   26 1    
    12    4   27 1    
    13    5    6 1    
    14    5   21 1    
    15    5   28 1    
    16    6    7 1    
    17    6   29 1    
    18    6   30 1    
    19    7    8 1    
    20    7   31 1    
    21    7   32 1    
    22    8    9 1    
    23    8   33 1    
    24    8   34 1    
    25    9   10 1    
    26    9   35 1    
    27    9   36 1    
    28   10   37 1    
    29   10   38 1    
    30   10   39 1    
    31   12   13 1    
    32   12   17 2    
    33   13   14 2    
    34   13   40 1    
    35   14   15 1    
    36   14   18 1    
    37   15   16 2    
    38   15   20 1    
    39   16   17 1    
    40   16   41 1    
    41   17   42 1    
    42   18   19 1    
    43   19   43 1    
    44   19   44 1    
    45   19   45 1    
    46   20   46 1    
    47   21   47 1    
@<TRIPOS>SUBSTRUCTURE
     1 ****        1 TEMP              0 ****  ****    0 ROOT 
@<TRIPOS>NORMAL
@<TRIPOS>FF_PBC
FORCE_FIELD_SETUP_FEATURE Force Field Setup information
v1.0  0 0.000000 0.000000 0.000000 0.000000 0.000000 0.000000 NONE 0 0 0 0 1 0 0 0 0 0 0 0 0
