@<TRIPOS>MOLECULE
MOL005008
   45    48     1     1     0
SMALL
GASTEIGER


@<TRIPOS>ATOM
      1 O           3.865687    0.132029    1.140571 O.3       1 <1>        -0.335990 
      2 O           4.124605    2.208575   -0.785410 O.3       1 <1>        -0.388620 
      3 O          -2.529729    0.645733    0.390796 O.3       1 <1>        -0.305131 
      4 O          -1.681152   -2.826819   -0.003630 O.3       1 <1>        -0.354461 
      5 O          -4.425647   -2.847994   -0.345057 O.2       1 <1>        -0.284270 
      6 O          -6.829617   -1.628383   -0.452105 O.3       1 <1>        -0.358954 
      7 O          -6.726723    3.218442    0.252790 O.3       1 <1>        -0.359667 
      8 C           4.765074   -0.005760    0.029047 C.3       1 <1>         0.096473 
      9 C           4.232059    0.824117   -1.176640 C.3       1 <1>         0.088115 
     10 C           2.843838    0.290296   -1.612865 C.3       1 <1>         0.003612 
     11 C           1.958977    0.033147   -0.390851 C.ar      1 <1>        -0.014211 
     12 C           2.500556   -0.044549    0.909129 C.ar      1 <1>         0.080267 
     13 C           4.923551   -1.516815   -0.303749 C.3       1 <1>        -0.033130 
     14 C           6.131070    0.565462    0.497042 C.3       1 <1>        -0.033130 
     15 C           0.497339   -0.131847   -0.584907 C.ar      1 <1>        -0.046314 
     16 C           1.608612   -0.305443    2.063204 C.ar      1 <1>        -0.030747 
     17 C          -0.338725   -0.359691    0.512190 C.ar      1 <1>         0.008554 
     18 C           0.232360   -0.458042    1.875035 C.ar      1 <1>        -0.049573 
     19 C          -1.829732   -0.500075    0.311526 C.2       1 <1>         0.123630 
     20 C          -2.407635   -1.694118    0.069967 C.2       1 <1>         0.151806 
     21 C          -3.913114    0.706361    0.232145 C.ar      1 <1>         0.099001 
     22 C          -4.682495   -0.522502   -0.036927 C.ar      1 <1>         0.084553 
     23 C          -3.867040   -1.784892   -0.121405 C.2       1 <1>         0.223066 
     24 C          -6.079232   -0.476639   -0.197432 C.ar      1 <1>         0.088401 
     25 C          -4.571271    1.934639    0.328485 C.ar      1 <1>        -0.000529 
     26 C          -6.045746    2.003278    0.161150 C.ar      1 <1>         0.077519 
     27 C          -6.767855    0.831046   -0.092809 C.ar      1 <1>        -0.001302 
     28 H           4.942492    0.743961   -2.018426 H         1 <1>         0.062515 
     29 H           2.943262   -0.654951   -2.167952 H         1 <1>         0.033990 
     30 H           2.352837    1.014892   -2.280873 H         1 <1>         0.033990 
     31 H           5.386063   -2.039907    0.546861 H         1 <1>         0.025820 
     32 H           3.954227   -1.999569   -0.492109 H         1 <1>         0.025820 
     33 H           5.565416   -1.650412   -1.187652 H         1 <1>         0.025820 
     34 H           6.880801    0.486003   -0.304209 H         1 <1>         0.025820 
     35 H           6.026014    1.623857    0.779222 H         1 <1>         0.025820 
     36 H           6.494834    0.016191    1.378480 H         1 <1>         0.025820 
     37 H           0.073163   -0.070118   -1.581503 H         1 <1>         0.062777 
     38 H           2.036636   -0.375939    3.057217 H         1 <1>         0.064356 
     39 H           3.830611    2.785785   -1.482756 H         1 <1>         0.209914 
     40 H          -0.419000   -0.647490    2.722330 H         1 <1>         0.062504 
     41 H          -3.994765    2.831413    0.525967 H         1 <1>         0.066947 
     42 H          -7.843958    0.878443   -0.214906 H         1 <1>         0.066923 
     43 H          -0.741156   -2.765971    0.123235 H         1 <1>         0.217537 
     44 H          -6.312194   -2.427324   -0.506016 H         1 <1>         0.217342 
     45 H          -6.162999    3.962377    0.432599 H         1 <1>         0.217316 
@<TRIPOS>BOND
     1    1    8 1    
     2   12    1 1    
     3    9    2 1    
     4    2   39 1    
     5    3   19 1    
     6   21    3 1    
     7   20    4 1    
     8    4   43 1    
     9   23    5 2    
    10   24    6 1    
    11    6   44 1    
    12   26    7 1    
    13    7   45 1    
    14    9    8 1    
    15    8   13 1    
    16    8   14 1    
    17   10    9 1    
    18    9   28 1    
    19   11   10 1    
    20   10   29 1    
    21   10   30 1    
    22   11   12 2    
    23   15   11 1    
    24   16   12 1    
    25   13   31 1    
    26   13   32 1    
    27   13   33 1    
    28   14   34 1    
    29   14   35 1    
    30   14   36 1    
    31   17   15 2    
    32   15   37 1    
    33   18   16 2    
    34   16   38 1    
    35   17   18 1    
    36   19   17 1    
    37   18   40 1    
    38   19   20 2    
    39   23   20 1    
    40   21   22 1    
    41   25   21 2    
    42   22   23 1    
    43   22   24 2    
    44   24   27 1    
    45   25   26 1    
    46   25   41 1    
    47   26   27 2    
    48   27   42 1    
@<TRIPOS>SUBSTRUCTURE
     1 ****        1 TEMP              0 ****  ****    0 ROOT 
@<TRIPOS>NORMAL
@<TRIPOS>FF_PBC
FORCE_FIELD_SETUP_FEATURE Force Field Setup information
v1.0  0 0.000000 0.000000 0.000000 0.000000 0.000000 0.000000 NONE 0 0 0 0 1 0 0 0 0 0 0 0 0
