@<TRIPOS>MOLECULE
MOL004913
   32    35     1     1     0
SMALL
GASTEIGER


@<TRIPOS>ATOM
      1 C           5.197968    0.357731    0.228201 C.ar      1 <1>         0.077525 
      2 C           4.587714   -0.990785    0.280287 C.ar      1 <1>        -0.001114 
      3 C           3.201587   -1.157853    0.214008 C.ar      1 <1>         0.093698 
      4 C           2.329975    0.038720    0.089490 C.ar      1 <1>         0.139858 
      5 C           2.897743    1.339747    0.035905 C.ar      1 <1>         0.107557 
      6 C           4.370026    1.489959    0.108371 C.ar      1 <1>        -0.000232 
      7 C           0.858607   -0.087300    0.019684 C.ar      1 <1>         0.382216 
      8 C           0.118481    1.045846   -0.092274 C.ar      1 <1>         0.167191 
      9 C           0.768165    2.401840   -0.148528 C.2       1 <1>         0.308826 
     10 O           2.101420    2.492416   -0.083525 O.3       1 <1>        -0.272622 
     11 O           0.135629   -1.268562    0.058977 O.2       1 <1>        -0.202695 
     12 C          -1.176630   -0.839904   -0.028956 C.ar      1 <1>         0.367058 
     13 C          -1.281229    0.619670   -0.132119 C.ar      1 <1>         0.101010 
     14 C          -2.332590   -1.612931   -0.028290 C.ar      1 <1>         0.073032 
     15 C          -3.655344   -0.943903   -0.129306 C.ar      1 <1>         0.084749 
     16 C          -3.734237    0.471011   -0.232914 C.ar      1 <1>        -0.030512 
     17 C          -2.502094    1.300295   -0.235919 C.ar      1 <1>        -0.042107 
     18 O          -4.797436   -1.752310   -0.117318 O.3       1 <1>        -0.347606 
     19 C          -6.129174   -1.209676   -0.119690 C.3       1 <1>         0.043031 
     20 O           6.587757    0.475283    0.299326 O.3       1 <1>        -0.359667 
     21 O           2.670329   -2.449337    0.266810 O.3       1 <1>        -0.358765 
     22 O           0.079212    3.400927   -0.251613 O.2       1 <1>        -0.258461 
     23 H           5.229439   -1.860151    0.371188 H         1 <1>         0.066926 
     24 H           4.797347    2.485613    0.067823 H         1 <1>         0.066951 
     25 H          -2.271348   -2.692487    0.045715 H         1 <1>         0.073783 
     26 H          -4.687753    0.979394   -0.310718 H         1 <1>         0.064353 
     27 H          -2.544287    2.382004   -0.312882 H         1 <1>         0.062744 
     28 H          -6.834423   -2.053078   -0.072950 H         1 <1>         0.052870 
     29 H          -6.329101   -0.645030   -1.043364 H         1 <1>         0.052870 
     30 H          -6.296771   -0.569661    0.760339 H         1 <1>         0.052870 
     31 H           6.916627    1.367441    0.279266 H         1 <1>         0.217316 
     32 H           1.723588   -2.515227    0.215476 H         1 <1>         0.217345 
@<TRIPOS>BOND
     1    1    2 1    
     2    1    6 2    
     3    1   20 1    
     4    2    3 2    
     5    2   23 1    
     6    3    4 1    
     7    3   21 1    
     8    4    5 2    
     9    4    7 1    
    10    5    6 1    
    11    5   10 1    
    12    6   24 1    
    13    7    8 2    
    14    7   11 1    
    15    8    9 1    
    16    8   13 1    
    17    9   10 1    
    18    9   22 2    
    19   11   12 1    
    20   12   13 1    
    21   12   14 2    
    22   13   17 2    
    23   14   15 1    
    24   14   25 1    
    25   15   16 2    
    26   15   18 1    
    27   16   17 1    
    28   16   26 1    
    29   17   27 1    
    30   18   19 1    
    31   19   28 1    
    32   19   29 1    
    33   19   30 1    
    34   20   31 1    
    35   21   32 1    
@<TRIPOS>SUBSTRUCTURE
     1 ****        1 TEMP              0 ****  ****    0 ROOT 
@<TRIPOS>NORMAL
@<TRIPOS>FF_PBC
FORCE_FIELD_SETUP_FEATURE Force Field Setup information
v1.0  0 0.000000 0.000000 0.000000 0.000000 0.000000 0.000000 NONE 0 0 0 0 1 0 0 0 0 0 0 0 0
