@<TRIPOS>MOLECULE
MOL002323
   32    34     1     1     0
SMALL
GASTEIGER


@<TRIPOS>ATOM
      1 N          -2.689833    2.206455   -1.023057 N.ar      1 <1>        -0.221797 
      2 C          -2.556965    0.815240   -1.055282 C.ar      1 <1>         0.124352 
      3 N          -1.342907    0.221609   -0.976637 N.ar      1 <1>        -0.173021 
      4 C          -0.226891    1.005279   -0.870706 C.ar      1 <1>         0.338776 
      5 C          -0.281736    2.365251   -0.839248 C.ar      1 <1>         0.197660 
      6 C          -1.600587    3.024627   -0.917469 C.ar      1 <1>         0.139686 
      7 N           1.086934    0.669012   -0.779234 N.ar      1 <1>        -0.131697 
      8 C           1.849187    1.825072   -0.698611 C.ar      1 <1>         0.271918 
      9 N           1.014590    2.854030   -0.733066 N.ar      1 <1>        -0.182219 
     10 N          -1.714199    4.428720   -0.878596 N.3       1 <1>        -0.284765 
     11 C           1.608335   -0.718320   -0.727019 C.3       1 <1>         0.298101 
     12 C           1.313894   -1.427640    0.623587 C.3       1 <1>         0.172815 
     13 C           2.717702   -1.573432    1.255383 C.3       1 <1>         0.118333 
     14 C           3.593718   -1.689527   -0.008397 C.3       1 <1>         0.116889 
     15 O           3.041854   -0.641141   -0.820599 O.3       1 <1>        -0.309356 
     16 C           5.092172   -1.470417    0.305295 C.3       1 <1>         0.073153 
     17 O           5.460396   -2.375387    1.363018 O.3       1 <1>        -0.392364 
     18 O           0.749369   -2.724563    0.351961 O.3       1 <1>        -0.380303 
     19 O           2.805174   -2.727344    2.108278 O.3       1 <1>        -0.386238 
     20 H          -3.447007    0.200789   -1.145572 H         1 <1>         0.104946 
     21 H           2.931537    1.891392   -0.620763 H         1 <1>         0.162031 
     22 H          -2.622545    4.707925   -0.362883 H         1 <1>         0.125394 
     23 H          -1.740459    4.818134   -1.885742 H         1 <1>         0.125394 
     24 H           1.211615   -1.322887   -1.562034 H         1 <1>         0.144492 
     25 H           0.633215   -0.846941    1.269499 H         1 <1>         0.071554 
     26 H           2.976460   -0.649795    1.803794 H         1 <1>         0.064917 
     27 H           3.445245   -2.682856   -0.468154 H         1 <1>         0.064805 
     28 H           5.684059   -1.652226   -0.607838 H         1 <1>         0.058372 
     29 H           5.247199   -0.425923    0.623565 H         1 <1>         0.058372 
     30 H           6.380886   -2.310256    1.604406 H         1 <1>         0.209508 
     31 H           0.689965   -3.257325    1.141852 H         1 <1>         0.210285 
     32 H           3.702022   -2.873150    2.403663 H         1 <1>         0.210008 
@<TRIPOS>BOND
     1    1    2 1    
     2    1    6 2    
     3    2    3 2    
     4    2   20 1    
     5    3    4 1    
     6    4    5 2    
     7    4    7 1    
     8    5    6 1    
     9    5    9 1    
    10    6   10 1    
    11    7    8 1    
    12    7   11 1    
    13    8    9 2    
    14    8   21 1    
    15   10   22 1    
    16   10   23 1    
    17   11   12 1    
    18   11   15 1    
    19   11   24 1    
    20   12   13 1    
    21   12   18 1    
    22   12   25 1    
    23   13   14 1    
    24   13   19 1    
    25   13   26 1    
    26   14   15 1    
    27   14   16 1    
    28   14   27 1    
    29   16   17 1    
    30   16   28 1    
    31   16   29 1    
    32   17   30 1    
    33   18   31 1    
    34   19   32 1    
@<TRIPOS>SUBSTRUCTURE
     1 ****        1 TEMP              0 ****  ****    0 ROOT 
@<TRIPOS>NORMAL
@<TRIPOS>FF_PBC
FORCE_FIELD_SETUP_FEATURE Force Field Setup information
v1.0  0 0.000000 0.000000 0.000000 0.000000 0.000000 0.000000 NONE 0 0 0 0 1 0 0 0 0 0 0 0 0
