@<TRIPOS>MOLECULE
MOL004835
   37    38     1     1     0
SMALL
GASTEIGER


@<TRIPOS>ATOM
      1 O          -4.014861   -2.187925    0.055840 O.3       1 <1>        -0.347243 
      2 O           6.319685    0.750540   -0.227162 O.3       1 <1>        -0.347912 
      3 O          -6.386743    2.125854   -0.124874 O.3       1 <1>        -0.359749 
      4 O           0.822389   -2.495517    0.814406 O.2       1 <1>        -0.287281 
      5 C          -2.789411   -0.146477    0.476892 C.ar      1 <1>         0.005226 
      6 C          -3.985558   -0.798880    0.174230 C.ar      1 <1>         0.085366 
      7 C           2.312251   -0.729121    0.364563 C.ar      1 <1>         0.021816 
      8 C          -1.529035   -0.967070    0.662190 C.2       1 <1>        -0.048494 
      9 C          -2.785834    1.332974    0.612094 C.ar      1 <1>        -0.049697 
     10 C           0.923433   -1.311253    0.535289 C.2       1 <1>         0.186081 
     11 C          -5.234150   -0.028653   -0.032181 C.ar      1 <1>        -0.001343 
     12 C          -0.306423   -0.509268    0.359423 C.2       1 <1>        -0.013715 
     13 C           2.584989    0.639858    0.523641 C.ar      1 <1>        -0.048501 
     14 C           3.429222   -1.643017    0.019755 C.ar      1 <1>        -0.048501 
     15 C          -5.228212    1.370707    0.076170 C.ar      1 <1>         0.075062 
     16 C          -3.963896    2.062537    0.414367 C.ar      1 <1>        -0.031221 
     17 C           5.008749    0.300062   -0.018923 C.ar      1 <1>         0.075852 
     18 C           3.956161    1.168352    0.322161 C.ar      1 <1>        -0.031020 
     19 C           4.723880   -1.145822   -0.164191 C.ar      1 <1>        -0.031020 
     20 C          -3.685397   -2.667971   -1.257473 C.3       1 <1>         0.043052 
     21 C           6.643518    2.149876   -0.279373 C.3       1 <1>         0.043026 
     22 H          -1.642058   -1.980277    1.049180 H         1 <1>         0.062539 
     23 H          -1.876893    1.862751    0.873368 H         1 <1>         0.062503 
     24 H          -6.146108   -0.564245   -0.269713 H         1 <1>         0.066928 
     25 H          -0.205391    0.489933   -0.055161 H         1 <1>         0.065602 
     26 H           1.801031    1.334716    0.800654 H         1 <1>         0.062539 
     27 H           3.242427   -2.706334   -0.091838 H         1 <1>         0.062539 
     28 H          -3.961384    3.143157    0.511819 H         1 <1>         0.064340 
     29 H           4.117102    2.232157    0.443624 H         1 <1>         0.064347 
     30 H           5.535647   -1.819957   -0.417007 H         1 <1>         0.064347 
     31 H          -4.403762   -2.292274   -2.002662 H         1 <1>         0.052870 
     32 H          -3.732544   -3.766817   -1.243039 H         1 <1>         0.052870 
     33 H          -2.667910   -2.363110   -1.547549 H         1 <1>         0.052870 
     34 H          -7.125065    1.629563   -0.460550 H         1 <1>         0.217315 
     35 H           6.463438    2.638554    0.690034 H         1 <1>         0.052869 
     36 H           6.071223    2.655355   -1.072363 H         1 <1>         0.052869 
     37 H           7.714587    2.237241   -0.513840 H         1 <1>         0.052869 
@<TRIPOS>BOND
     1    6    1 1    
     2    1   20 1    
     3   17    2 1    
     4    2   21 1    
     5   15    3 1    
     6    3   34 1    
     7   10    4 2    
     8    5    6 2    
     9    8    5 1    
    10    5    9 1    
    11    6   11 1    
    12    7   10 1    
    13   13    7 2    
    14    7   14 1    
    15   12    8 2    
    16    8   22 1    
    17    9   16 2    
    18    9   23 1    
    19   10   12 1    
    20   11   15 2    
    21   11   24 1    
    22   12   25 1    
    23   18   13 1    
    24   13   26 1    
    25   14   19 2    
    26   14   27 1    
    27   16   15 1    
    28   16   28 1    
    29   17   18 2    
    30   17   19 1    
    31   18   29 1    
    32   19   30 1    
    33   20   31 1    
    34   20   32 1    
    35   20   33 1    
    36   21   35 1    
    37   21   36 1    
    38   21   37 1    
@<TRIPOS>SUBSTRUCTURE
     1 ****        2 TEMP              0 ****  ****    0 ROOT 
@<TRIPOS>NORMAL
@<TRIPOS>FF_PBC
FORCE_FIELD_SETUP_FEATURE Force Field Setup information
v1.0  0 0.000000 0.000000 0.000000 0.000000 0.000000 0.000000 NONE 0 0 0 0 1 0 0 0 0 0 0 0 0
