@<TRIPOS>MOLECULE
MOL000667
   21    20     1     1     0
SMALL
GASTEIGER


@<TRIPOS>ATOM
      1 C          -0.424151   -0.411496   -0.000114 C.3       1 <1>        -0.050995 
      2 C           0.935608    0.339235    0.000113 C.3       1 <1>        -0.053235 
      3 C          -1.618472    0.581637    0.000114 C.3       1 <1>        -0.029718 
      4 C           2.129434   -0.654232   -0.000116 C.3       1 <1>        -0.055910 
      5 C          -2.979009   -0.159903   -0.000115 C.3       1 <1>         0.044206 
      6 C           3.487376    0.095022    0.000108 C.3       1 <1>        -0.065276 
      7 O          -4.030330    0.822480    0.000103 O.3       1 <1>        -0.395007 
      8 H          -0.485150   -1.054210   -0.893784 H         1 <1>         0.026599 
      9 H          -0.485193   -1.054676    0.893218 H         1 <1>         0.026599 
     10 H           0.997496    0.982162    0.893610 H         1 <1>         0.026521 
     11 H           0.997540    0.982627   -0.893046 H         1 <1>         0.026521 
     12 H          -1.567528    1.226032    0.893103 H         1 <1>         0.028724 
     13 H          -1.567481    1.226500   -0.892535 H         1 <1>         0.028724 
     14 H           2.073860   -1.298129   -0.893761 H         1 <1>         0.026265 
     15 H           2.073819   -1.298593    0.893194 H         1 <1>         0.026265 
     16 H          -3.053145   -0.797627   -0.897842 H         1 <1>         0.055696 
     17 H          -3.053199   -0.798085    0.897282 H         1 <1>         0.055696 
     18 H           4.318931   -0.627469   -0.000062 H         1 <1>         0.022978 
     19 H           3.575766    0.730185    0.895304 H         1 <1>         0.022978 
     20 H           3.575805    0.730651   -0.894754 H         1 <1>         0.022978 
     21 H          -4.901982    0.437886   -0.000022 H         1 <1>         0.209395 
@<TRIPOS>BOND
     1    1    2 1    
     2    1    3 1    
     3    1    8 1    
     4    1    9 1    
     5    2    4 1    
     6    2   10 1    
     7    2   11 1    
     8    3    5 1    
     9    3   12 1    
    10    3   13 1    
    11    4    6 1    
    12    4   14 1    
    13    4   15 1    
    14    5    7 1    
    15    5   16 1    
    16    5   17 1    
    17    6   18 1    
    18    6   19 1    
    19    6   20 1    
    20    7   21 1    
@<TRIPOS>SUBSTRUCTURE
     1 ****        1 TEMP              0 ****  ****    0 ROOT 
@<TRIPOS>NORMAL
@<TRIPOS>FF_PBC
FORCE_FIELD_SETUP_FEATURE Force Field Setup information
v1.0  0 0.000000 0.000000 0.000000 0.000000 0.000000 0.000000 NONE 0 0 0 0 1 0 0 0 0 0 0 0 0
