@<TRIPOS>MOLECULE
MOL000054
   26    25     1     1     0
SMALL
GASTEIGER


@<TRIPOS>ATOM
      1 C           3.419244   -0.478646   -1.155295 C.2       1 <1>         0.276540 
      2 N           3.427195   -0.524362    1.286868 N.3       1 <1>        -0.319317 
      3 C           2.582629   -0.710821    0.083666 C.3       1 <1>         0.091438 
      4 C           1.326328    0.218621    0.102649 C.3       1 <1>        -0.027066 
      5 C          -0.003313   -0.586785    0.057833 C.3       1 <1>        -0.035508 
      6 C          -1.250412    0.340720    0.084629 C.3       1 <1>         0.011596 
      7 N          -2.497687   -0.429554    0.055168 N.pl3     1 <1>        -0.317660 
      8 C          -3.701252    0.089194    0.077755 C.2       1 <1>         0.170081 
      9 N          -4.703168   -0.696944    0.050131 N.2       1 <1>        -0.272800 
     10 N          -3.875959    1.386167    0.127501 N.pl3     1 <1>        -0.331519 
     11 O           3.524040   -1.317453   -2.037269 O.2       1 <1>        -0.263438 
     12 O           4.032588    0.706175   -1.219271 O.3       1 <1>        -0.330097 
     13 H           2.870637   -0.733687    2.191141 H         1 <1>         0.118922 
     14 H           3.823557    0.482354    1.323585 H         1 <1>         0.118922 
     15 H           2.281674   -1.771923    0.069387 H         1 <1>         0.056212 
     16 H           1.330275    0.835562    1.015488 H         1 <1>         0.028561 
     17 H           1.347289    0.910028   -0.755827 H         1 <1>         0.028561 
     18 H          -0.029180   -1.195530   -0.861865 H         1 <1>         0.028088 
     19 H          -0.046003   -1.264622    0.926940 H         1 <1>         0.028088 
     20 H          -1.206740    0.941151    1.008374 H         1 <1>         0.046188 
     21 H          -1.201637    1.004830   -0.794580 H         1 <1>         0.046188 
     22 H          -2.431456   -1.459373    0.015157 H         1 <1>         0.148627 
     23 H          -5.653131   -0.362096    0.065028 H         1 <1>         0.189360 
     24 H          -4.826169    1.782118    0.145492 H         1 <1>         0.144888 
     25 H          -3.089214    2.043366    0.149424 H         1 <1>         0.144888 
     26 H           4.549760    0.791611   -2.012607 H         1 <1>         0.220259 
@<TRIPOS>BOND
     1    1    3 1    
     2    1   11 2    
     3    1   12 1    
     4    3    2 1    
     5    2   13 1    
     6    2   14 1    
     7    3    4 1    
     8    3   15 1    
     9    4    5 1    
    10    4   16 1    
    11    4   17 1    
    12    5    6 1    
    13    5   18 1    
    14    5   19 1    
    15    6    7 1    
    16    6   20 1    
    17    6   21 1    
    18    7    8 1    
    19    7   22 1    
    20    8    9 2    
    21    8   10 1    
    22    9   23 1    
    23   10   24 1    
    24   10   25 1    
    25   12   26 1    
@<TRIPOS>SUBSTRUCTURE
     1 ****        1 TEMP              0 ****  ****    0 ROOT 
@<TRIPOS>NORMAL
@<TRIPOS>FF_PBC
FORCE_FIELD_SETUP_FEATURE Force Field Setup information
v1.0  0 0.000000 0.000000 0.000000 0.000000 0.000000 0.000000 NONE 0 0 0 0 1 0 0 0 0 0 0 0 0
