@<TRIPOS>MOLECULE
MOL002202
   22    22     1     1     0
SMALL
GASTEIGER


@<TRIPOS>ATOM
      1 C           1.090815   -0.896025   -0.048112 C.ar      1 <1>         0.059461 
      2 C          -0.310214   -1.380549    0.064642 C.ar      1 <1>         0.059461 
      3 N           1.312284    0.448290   -0.105406 N.ar      1 <1>        -0.253524 
      4 C           2.301492   -1.830115   -0.103432 C.3       1 <1>        -0.020616 
      5 N          -1.319688   -0.463606    0.106421 N.ar      1 <1>        -0.253524 
      6 C          -0.662642   -2.866571    0.135529 C.3       1 <1>        -0.020616 
      7 C           0.278640    1.348437   -0.061405 C.ar      1 <1>         0.059461 
      8 C          -1.066638    0.882339    0.046850 C.ar      1 <1>         0.059461 
      9 C           0.603297    2.841682   -0.130526 C.3       1 <1>        -0.020616 
     10 C          -2.247108    1.853652    0.098832 C.3       1 <1>        -0.020616 
     11 H           2.031297   -2.893249   -0.051404 H         1 <1>         0.029306 
     12 H           2.841175   -1.647724   -1.044332 H         1 <1>         0.029306 
     13 H           2.965702   -1.592032    0.740345 H         1 <1>         0.029306 
     14 H          -1.753651   -2.984918    0.215305 H         1 <1>         0.029306 
     15 H          -0.318016   -3.377262   -0.775754 H         1 <1>         0.029306 
     16 H          -0.192777   -3.321299    1.020097 H         1 <1>         0.029306 
     17 H           1.691976    2.979600   -0.210790 H         1 <1>         0.029306 
     18 H           0.249731    3.347230    0.779939 H         1 <1>         0.029306 
     19 H           0.124635    3.291467   -1.012631 H         1 <1>         0.029306 
     20 H          -3.187323    1.288174    0.182087 H         1 <1>         0.029306 
     21 H          -2.279054    2.458217   -0.819365 H         1 <1>         0.029306 
     22 H          -2.154030    2.514261    0.973210 H         1 <1>         0.029306 
@<TRIPOS>BOND
     1    1    2 1    
     2    1    3 2    
     3    1    4 1    
     4    2    5 2    
     5    2    6 1    
     6    3    7 1    
     7    4   11 1    
     8    4   12 1    
     9    4   13 1    
    10    5    8 1    
    11    6   14 1    
    12    6   15 1    
    13    6   16 1    
    14    7    8 2    
    15    7    9 1    
    16    8   10 1    
    17    9   17 1    
    18    9   18 1    
    19    9   19 1    
    20   10   20 1    
    21   10   21 1    
    22   10   22 1    
@<TRIPOS>SUBSTRUCTURE
     1 ****        1 TEMP              0 ****  ****    0 ROOT 
@<TRIPOS>NORMAL
@<TRIPOS>FF_PBC
FORCE_FIELD_SETUP_FEATURE Force Field Setup information
v1.0  0 0.000000 0.000000 0.000000 0.000000 0.000000 0.000000 NONE 0 0 0 0 1 0 0 0 0 0 0 0 0
