@<TRIPOS>MOLECULE
MOL004639
  163   170     1     1     0
SMALL
GASTEIGER


@<TRIPOS>ATOM
      1 C          -3.640266   -2.197344    1.591519 C.3       1 <1>        -0.025376 
      2 C          -3.564479   -3.122275    2.831992 C.3       1 <1>         0.069511 
      3 C          -3.505804   -4.675269    2.490292 C.3       1 <1>         0.020641 
      4 C          -3.497725   -5.056645    0.920776 C.3       1 <1>        -0.025206 
      5 C          -3.960508   -3.990348   -0.164499 C.3       1 <1>        -0.021728 
      6 C          -4.627771   -2.796055    0.573537 C.3       1 <1>        -0.044437 
      7 C          -2.428662   -6.092265    0.385863 C.3       1 <1>        -0.048508 
      8 C          -1.880297   -5.802759   -1.041860 C.3       1 <1>        -0.045983 
      9 C          -1.460808   -4.306383   -1.185970 C.3       1 <1>        -0.015850 
     10 C          -2.808759   -3.514885   -1.173213 C.3       1 <1>        -0.010741 
     11 C          -0.626587   -3.983148   -2.506651 C.3       1 <1>         0.001211 
     12 C          -0.210711   -2.517931   -2.408599 C.2       1 <1>        -0.041165 
     13 C          -1.349565   -1.633398   -2.013809 C.2       1 <1>        -0.061680 
     14 C          -2.498206   -2.058433   -1.458155 C.2       1 <1>        -0.079573 
     15 C           0.565882   -4.983549   -2.667037 C.3       1 <1>        -0.016023 
     16 C           1.782859   -4.406778   -3.432769 C.3       1 <1>         0.067441 
     17 C           2.230926   -3.023817   -2.842893 C.3       1 <1>         0.041302 
     18 C           1.052507   -2.069896   -2.610325 C.2       1 <1>        -0.054081 
     19 C           3.274608   -2.425873   -3.842953 C.3       1 <1>        -0.038194 
     20 C           3.737929   -1.004358   -3.462994 C.3       1 <1>        -0.037339 
     21 C           2.531237   -0.028287   -3.483240 C.3       1 <1>         0.057045 
     22 C           1.405760   -0.575565   -2.556053 C.3       1 <1>        -0.016037 
     23 C           2.710942    3.663857   -0.957384 C.3       1 <1>         0.113851 
     24 C           1.403588    3.393672   -0.159140 C.3       1 <1>         0.111922 
     25 C           0.464855    4.629305   -0.186809 C.3       1 <1>         0.114062 
     26 C           1.268227    5.868264    0.288548 C.3       1 <1>         0.134113 
     27 C           2.559775    6.052052   -0.549416 C.3       1 <1>         0.188012 
     28 O           3.376516    4.867375   -0.508847 O.3       1 <1>        -0.340505 
     29 C          -2.801146   -2.511619    5.081403 C.3       1 <1>         0.188127 
     30 O          -3.739488   -1.458785    5.389066 O.3       1 <1>        -0.343072 
     31 C          -3.196221   -0.120935    5.359408 C.3       1 <1>         0.087317 
     32 C          -1.906421    0.005326    6.216489 C.3       1 <1>         0.109842 
     33 C          -0.840589   -1.031916    5.757296 C.3       1 <1>         0.120486 
     34 C          -1.512008   -2.422408    5.948397 C.3       1 <1>         0.134483 
     35 C           0.675468   -1.503536    3.890373 C.3       1 <1>         0.188437 
     36 O           1.919931   -1.245505    4.568237 O.3       1 <1>        -0.340520 
     37 C           2.497963    0.054359    4.301423 C.3       1 <1>         0.113005 
     38 C           2.655423    0.319840    2.776545 C.3       1 <1>         0.111896 
     39 C           1.303611    0.125023    2.044151 C.3       1 <1>         0.114061 
     40 C           0.800668   -1.305565    2.356439 C.3       1 <1>         0.134124 
     41 C           1.835948    1.236040    5.064169 C.3       1 <1>         0.073015 
     42 O           0.360625    1.152717    2.415244 O.3       1 <1>        -0.386401 
     43 O          -0.432331   -0.732870    4.398968 O.3       1 <1>        -0.340053 
     44 O          -1.442253    1.369410    6.181752 O.3       1 <1>        -0.386569 
     45 C          -3.065640    0.466784    3.930283 C.3       1 <1>        -0.036060 
     46 O          -2.480261   -2.630360    3.669777 O.3       1 <1>        -0.344807 
     47 C           2.526713    3.581848   -2.501267 C.3       1 <1>         0.085860 
     48 O           2.261303    6.434945   -1.904627 O.3       1 <1>        -0.346059 
     49 O          -0.115869    4.801892   -1.494036 O.3       1 <1>        -0.386401 
     50 C           3.000758    1.326195   -2.976359 C.2       1 <1>         0.268496 
     51 O           2.062846    2.287230   -2.946903 O.3       1 <1>        -0.312101 
     52 O           4.158342    1.523954   -2.636886 O.2       1 <1>        -0.264353 
     53 C           2.960184   -3.303146   -1.472436 C.3       1 <1>         0.055891 
     54 O           3.215860   -2.175656   -0.617395 O.3       1 <1>        -0.394059 
     55 C           3.423383    6.891270   -2.632391 C.3       1 <1>         0.079191 
     56 C           3.043002    7.101060   -4.120410 C.3       1 <1>         0.106836 
     57 C           1.881260    8.126328   -4.254062 C.3       1 <1>         0.111092 
     58 O           2.293330    9.361316   -3.633567 O.3       1 <1>        -0.386511 
     59 C           1.500809    8.358777   -5.746708 C.3       1 <1>         0.106476 
     60 C           0.177345    9.172426   -5.830939 C.3       1 <1>         0.072650 
     61 O           0.281330   10.365722   -5.027337 O.3       1 <1>        -0.392376 
     62 O           2.575383    9.058517   -6.407226 O.3       1 <1>        -0.386870 
     63 O           4.196272    7.500938   -4.880882 O.3       1 <1>        -0.386860 
     64 C          -5.166258   -4.575585   -1.010554 C.3       1 <1>        -0.058735 
     65 C          -0.603287   -3.880592    0.057879 C.3       1 <1>        -0.058207 
     66 C          -2.304394   -5.313838    3.273307 C.3       1 <1>        -0.054821 
     67 O           1.455232   -4.425436   -4.838153 O.3       1 <1>        -0.390817 
     68 C          -1.451646   -4.057344   -3.841653 C.3       1 <1>        -0.054936 
     69 C           1.983487    0.193954   -4.931094 C.3       1 <1>        -0.050196 
     70 O           1.737110   -2.237907    1.764267 O.3       1 <1>        -0.384104 
     71 O           3.677398   -0.527681    2.218258 O.3       1 <1>        -0.386488 
     72 O          -1.795557   -2.591568    7.356609 O.3       1 <1>        -0.384094 
     73 O           1.776598    3.104680    1.205901 O.3       1 <1>        -0.386488 
     74 O           1.591086    5.763601    1.689316 O.3       1 <1>        -0.384104 
     75 O           1.998934    1.033703    6.482882 O.3       1 <1>        -0.392366 
     76 C          -4.761660   -5.330794    3.187715 C.3       1 <1>         0.052209 
     77 O          -4.727463   -6.767671    3.064280 O.3       1 <1>        -0.394374 
     78 H          -4.035730   -1.210118    1.872544 H         1 <1>         0.029048 
     79 H          -2.646434   -2.024930    1.163814 H         1 <1>         0.029048 
     80 H          -4.519618   -2.885424    3.337765 H         1 <1>         0.060308 
     81 H          -4.358849   -5.736415    0.897411 H         1 <1>         0.031301 
     82 H          -5.523112   -3.118987    1.127626 H         1 <1>         0.027158 
     83 H          -4.995672   -2.038054   -0.132888 H         1 <1>         0.027158 
     84 H          -1.531909   -6.121493    1.012340 H         1 <1>         0.026847 
     85 H          -2.795033   -7.137432    0.387484 H         1 <1>         0.026847 
     86 H          -1.036003   -6.488943   -1.205707 H         1 <1>         0.027105 
     87 H          -2.629035   -6.071027   -1.799411 H         1 <1>         0.027105 
     88 H          -3.263055   -3.747561   -2.137463 H         1 <1>         0.035395 
     89 H          -1.337455   -0.555313   -2.143520 H         1 <1>         0.061744 
     90 H          -3.236159   -1.288885   -1.236373 H         1 <1>         0.057525 
     91 H           0.228149   -5.881782   -3.210869 H         1 <1>         0.029895 
     92 H           0.921065   -5.361478   -1.705734 H         1 <1>         0.029895 
     93 H           2.608553   -5.134905   -3.312917 H         1 <1>         0.060283 
     94 H           4.157109   -3.082226   -3.919278 H         1 <1>         0.027548 
     95 H           2.864197   -2.347912   -4.855149 H         1 <1>         0.027548 
     96 H           4.504000   -0.660652   -4.178322 H         1 <1>         0.027571 
     97 H           4.211087   -1.020474   -2.470869 H         1 <1>         0.027571 
     98 H           1.673477   -0.331878   -1.521851 H         1 <1>         0.032049 
     99 H           0.573033    0.082571   -2.813737 H         1 <1>         0.032049 
    100 H           3.410243    2.857817   -0.686077 H         1 <1>         0.064694 
    101 H           0.887456    2.520543   -0.596669 H         1 <1>         0.064673 
    102 H          -0.360872    4.457604    0.525845 H         1 <1>         0.064758 
    103 H           0.644286    6.769230    0.176236 H         1 <1>         0.067095 
    104 H           3.124820    6.859925   -0.053727 H         1 <1>         0.093741 
    105 H          -3.328443   -3.414590    5.419518 H         1 <1>         0.093748 
    106 H          -3.958472    0.504317    5.856740 H         1 <1>         0.062075 
    107 H          -2.196940   -0.211775    7.260900 H         1 <1>         0.064594 
    108 H           0.033209   -0.950868    6.425370 H         1 <1>         0.065136 
    109 H          -0.834436   -3.243286    5.670701 H         1 <1>         0.067105 
    110 H           0.474597   -2.575104    4.007861 H         1 <1>         0.093753 
    111 H           3.519235   -0.005000    4.712046 H         1 <1>         0.064668 
    112 H           3.019170    1.344883    2.605595 H         1 <1>         0.064673 
    113 H           1.489980    0.208445    0.960486 H         1 <1>         0.064758 
    114 H          -0.197301   -1.441281    1.908250 H         1 <1>         0.067095 
    115 H           0.775526    1.336594    4.801674 H         1 <1>         0.058370 
    116 H           2.342837    2.174367    4.779798 H         1 <1>         0.058370 
    117 H          -0.505230    1.010704    2.041926 H         1 <1>         0.210005 
    118 H          -0.714616    1.524074    6.773871 H         1 <1>         0.210002 
    119 H          -2.641122    1.481654    3.962673 H         1 <1>         0.025536 
    120 H          -4.066501    0.534225    3.477664 H         1 <1>         0.025536 
    121 H          -2.432090   -0.150686    3.285679 H         1 <1>         0.025536 
    122 H           3.458129    3.869079   -3.015556 H         1 <1>         0.059261 
    123 H           1.753283    4.280979   -2.835374 H         1 <1>         0.059261 
    124 H          -0.705329    5.547481   -1.554002 H         1 <1>         0.210005 
    125 H           3.951651   -3.737441   -1.672946 H         1 <1>         0.056653 
    126 H           2.442297   -4.035588   -0.840664 H         1 <1>         0.056653 
    127 H           2.466763   -1.909062   -0.091183 H         1 <1>         0.209434 
    128 H           3.784201    7.844316   -2.213916 H         1 <1>         0.058735 
    129 H           4.248161    6.162249   -2.585223 H         1 <1>         0.058735 
    130 H           2.718215    6.127957   -4.523431 H         1 <1>         0.064299 
    131 H           1.005664    7.722472   -3.715950 H         1 <1>         0.064651 
    132 H           1.638653   10.046498   -3.748857 H         1 <1>         0.210003 
    133 H           1.348544    7.381543   -6.238257 H         1 <1>         0.064289 
    134 H          -0.656823    8.553128   -5.458555 H         1 <1>         0.058361 
    135 H          -0.026158    9.429021   -6.884418 H         1 <1>         0.058361 
    136 H          -0.501017   10.909830   -5.063457 H         1 <1>         0.209508 
    137 H           2.418775    9.217788   -7.332059 H         1 <1>         0.209989 
    138 H           4.462883    8.389945   -4.665489 H         1 <1>         0.209989 
    139 H          -6.033379   -4.851664   -0.389057 H         1 <1>         0.023534 
    140 H          -4.871698   -5.479976   -1.561319 H         1 <1>         0.023534 
    141 H          -5.536912   -3.840964   -1.744040 H         1 <1>         0.023534 
    142 H           0.189868   -4.603327    0.287840 H         1 <1>         0.023552 
    143 H          -1.219984   -3.794244    0.952392 H         1 <1>         0.023552 
    144 H          -0.124287   -2.901562   -0.044271 H         1 <1>         0.023552 
    145 H          -2.255039   -6.402230    3.121284 H         1 <1>         0.023667 
    146 H          -2.395997   -5.191762    4.358849 H         1 <1>         0.023667 
    147 H          -1.340185   -4.866498    2.996177 H         1 <1>         0.023667 
    148 H           2.190281   -4.399135   -5.441750 H         1 <1>         0.209815 
    149 H          -0.806780   -3.983680   -4.723326 H         1 <1>         0.023839 
    150 H          -2.170982   -3.236781   -3.977054 H         1 <1>         0.023839 
    151 H          -1.993643   -5.011629   -3.912692 H         1 <1>         0.023839 
    152 H           1.415568   -0.673068   -5.296123 H         1 <1>         0.023996 
    153 H           1.294250    1.051193   -4.969831 H         1 <1>         0.023996 
    154 H           2.808997    0.400278   -5.628765 H         1 <1>         0.023996 
    155 H           1.520760   -3.151844    1.927250 H         1 <1>         0.210110 
    156 H           3.456084   -1.452472    2.289961 H         1 <1>         0.210004 
    157 H          -2.194945   -3.426672    7.581198 H         1 <1>         0.210111 
    158 H           1.042776    2.837783    1.755878 H         1 <1>         0.210004 
    159 H           2.164968    5.020925    1.861731 H         1 <1>         0.210110 
    160 H           1.710827    1.773674    7.008585 H         1 <1>         0.209508 
    161 H          -5.692486   -4.953280    2.730423 H         1 <1>         0.056334 
    162 H          -4.798475   -5.085760    4.263594 H         1 <1>         0.056334 
    163 H          -5.472979   -7.204867    3.466483 H         1 <1>         0.209420 
@<TRIPOS>BOND
     1    1    2 1    
     2    6    1 1    
     3    1   78 1    
     4    1   79 1    
     5    3    2 1    
     6    2   46 1    
     7    2   80 1    
     8    4    3 1    
     9    3   66 1    
    10    3   76 1    
    11    5    4 1    
    12    7    4 1    
    13    4   81 1    
    14    5    6 1    
    15   10    5 1    
    16    5   64 1    
    17    6   82 1    
    18    6   83 1    
    19    8    7 1    
    20    7   84 1    
    21    7   85 1    
    22    9    8 1    
    23    8   86 1    
    24    8   87 1    
    25    9   10 1    
    26   11    9 1    
    27    9   65 1    
    28   14   10 1    
    29   10   88 1    
    30   12   11 1    
    31   11   15 1    
    32   11   68 1    
    33   12   13 1    
    34   18   12 2    
    35   13   14 2    
    36   13   89 1    
    37   14   90 1    
    38   16   15 1    
    39   15   91 1    
    40   15   92 1    
    41   17   16 1    
    42   16   67 1    
    43   16   93 1    
    44   18   17 1    
    45   19   17 1    
    46   17   53 1    
    47   22   18 1    
    48   20   19 1    
    49   19   94 1    
    50   19   95 1    
    51   21   20 1    
    52   20   96 1    
    53   20   97 1    
    54   21   22 1    
    55   50   21 1    
    56   21   69 1    
    57   22   98 1    
    58   22   99 1    
    59   23   24 1    
    60   23   28 1    
    61   47   23 1    
    62   23  100 1    
    63   24   25 1    
    64   24   73 1    
    65   24  101 1    
    66   25   26 1    
    67   25   49 1    
    68   25  102 1    
    69   27   26 1    
    70   26   74 1    
    71   26  103 1    
    72   28   27 1    
    73   27   48 1    
    74   27  104 1    
    75   29   30 1    
    76   29   34 1    
    77   46   29 1    
    78   29  105 1    
    79   30   31 1    
    80   31   32 1    
    81   31   45 1    
    82   31  106 1    
    83   33   32 1    
    84   32   44 1    
    85   32  107 1    
    86   34   33 1    
    87   33   43 1    
    88   33  108 1    
    89   34   72 1    
    90   34  109 1    
    91   35   36 1    
    92   35   40 1    
    93   43   35 1    
    94   35  110 1    
    95   36   37 1    
    96   37   38 1    
    97   37   41 1    
    98   37  111 1    
    99   39   38 1    
   100   38   71 1    
   101   38  112 1    
   102   40   39 1    
   103   39   42 1    
   104   39  113 1    
   105   40   70 1    
   106   40  114 1    
   107   41   75 1    
   108   41  115 1    
   109   41  116 1    
   110   42  117 1    
   111   44  118 1    
   112   45  119 1    
   113   45  120 1    
   114   45  121 1    
   115   51   47 1    
   116   47  122 1    
   117   47  123 1    
   118   48   55 1    
   119   49  124 1    
   120   50   51 1    
   121   50   52 2    
   122   53   54 1    
   123   53  125 1    
   124   53  126 1    
   125   54  127 1    
   126   55   56 1    
   127   55  128 1    
   128   55  129 1    
   129   56   57 1    
   130   56   63 1    
   131   56  130 1    
   132   57   58 1    
   133   57   59 1    
   134   57  131 1    
   135   58  132 1    
   136   59   60 1    
   137   59   62 1    
   138   59  133 1    
   139   60   61 1    
   140   60  134 1    
   141   60  135 1    
   142   61  136 1    
   143   62  137 1    
   144   63  138 1    
   145   64  139 1    
   146   64  140 1    
   147   64  141 1    
   148   65  142 1    
   149   65  143 1    
   150   65  144 1    
   151   66  145 1    
   152   66  146 1    
   153   66  147 1    
   154   67  148 1    
   155   68  149 1    
   156   68  150 1    
   157   68  151 1    
   158   69  152 1    
   159   69  153 1    
   160   69  154 1    
   161   70  155 1    
   162   71  156 1    
   163   72  157 1    
   164   73  158 1    
   165   74  159 1    
   166   75  160 1    
   167   76   77 1    
   168   76  161 1    
   169   76  162 1    
   170   77  163 1    
@<TRIPOS>SUBSTRUCTURE
     1 ****       35 TEMP              0 ****  ****    0 ROOT 
@<TRIPOS>NORMAL
@<TRIPOS>FF_PBC
FORCE_FIELD_SETUP_FEATURE Force Field Setup information
v1.0  0 0.000000 0.000000 0.000000 0.000000 0.000000 0.000000 NONE 0 0 0 0 1 0 0 0 0 0 0 0 0
