@<TRIPOS>MOLECULE
MOL002174
   37    37     1     1     0
SMALL
GASTEIGER


@<TRIPOS>ATOM
      1 C           1.623851   -2.496672    3.371186 C.3       1 <1>        -0.057621 
      2 C           1.294134   -1.590819    2.143729 C.3       1 <1>        -0.009019 
      3 C          -0.133134   -0.996275    2.395135 C.3       1 <1>         0.090052 
      4 C          -1.021076   -0.158019    1.365969 C.3       1 <1>         0.085763 
      5 C          -0.622462    0.053109   -0.115166 C.3       1 <1>        -0.023650 
      6 C          -1.463069    1.209406   -0.725768 C.3       1 <1>        -0.045694 
      7 C          -1.155638    1.575442   -2.216632 C.3       1 <1>        -0.037620 
      8 C          -1.379139    0.353520   -3.155880 C.3       1 <1>        -0.060061 
      9 C          -2.133412    2.713276   -2.643532 C.3       1 <1>        -0.060061 
     10 C           0.303711    2.093968   -2.389258 C.3       1 <1>        -0.060061 
     11 C           2.401466   -0.496819    2.066391 C.3       1 <1>        -0.057621 
     12 C           1.323060   -2.491982    0.874994 C.3       1 <1>        -0.057621 
     13 O          -0.156804    0.410990    2.310687 O.3       1 <1>        -0.367705 
     14 H           1.591705   -1.910889    4.303320 H         1 <1>         0.023571 
     15 H           0.894421   -3.317646    3.454048 H         1 <1>         0.023571 
     16 H           2.627357   -2.941567    3.285022 H         1 <1>         0.023571 
     17 H          -0.701133   -1.347248    3.271605 H         1 <1>         0.062714 
     18 H          -2.088885   -0.141066    1.636351 H         1 <1>         0.062200 
     19 H          -0.829420   -0.888508   -0.643752 H         1 <1>         0.029112 
     20 H           0.440972    0.299202   -0.192699 H         1 <1>         0.029112 
     21 H          -1.304601    2.103137   -0.099974 H         1 <1>         0.027115 
     22 H          -2.526518    0.931021   -0.643627 H         1 <1>         0.027115 
     23 H          -1.275563    0.655044   -4.209561 H         1 <1>         0.023490 
     24 H          -0.641965   -0.439955   -2.965902 H         1 <1>         0.023490 
     25 H          -2.387717   -0.063863   -3.014054 H         1 <1>         0.023490 
     26 H          -1.959848    3.014010   -3.688262 H         1 <1>         0.023490 
     27 H          -1.997460    3.601053   -2.006775 H         1 <1>         0.023490 
     28 H          -3.179827    2.382550   -2.555881 H         1 <1>         0.023490 
     29 H           0.506528    2.918187   -1.688462 H         1 <1>         0.023490 
     30 H           0.459254    2.467443   -3.413058 H         1 <1>         0.023490 
     31 H           1.042863    1.298955   -2.216142 H         1 <1>         0.023490 
     32 H           2.259128    0.179487    1.214641 H         1 <1>         0.023571 
     33 H           2.401344    0.109440    2.985324 H         1 <1>         0.023571 
     34 H           3.393625   -0.961468    1.959221 H         1 <1>         0.023571 
     35 H           1.292982   -1.904516   -0.050062 H         1 <1>         0.023571 
     36 H           0.466352   -3.183188    0.881285 H         1 <1>         0.023571 
     37 H           2.248552   -3.087253    0.844387 H         1 <1>         0.023571 
@<TRIPOS>BOND
     1    1    2 1    
     2    1   14 1    
     3    1   15 1    
     4    1   16 1    
     5    2    3 1    
     6    2   11 1    
     7    2   12 1    
     8    3    4 1    
     9    3   13 1    
    10    3   17 1    
    11    4    5 1    
    12    4   13 1    
    13    4   18 1    
    14    5    6 1    
    15    5   19 1    
    16    5   20 1    
    17    6    7 1    
    18    6   21 1    
    19    6   22 1    
    20    7    8 1    
    21    7    9 1    
    22    7   10 1    
    23    8   23 1    
    24    8   24 1    
    25    8   25 1    
    26    9   26 1    
    27    9   27 1    
    28    9   28 1    
    29   10   29 1    
    30   10   30 1    
    31   10   31 1    
    32   11   32 1    
    33   11   33 1    
    34   11   34 1    
    35   12   35 1    
    36   12   36 1    
    37   12   37 1    
@<TRIPOS>SUBSTRUCTURE
     1 ****        1 TEMP              0 ****  ****    0 ROOT 
@<TRIPOS>NORMAL
@<TRIPOS>FF_PBC
FORCE_FIELD_SETUP_FEATURE Force Field Setup information
v1.0  0 0.000000 0.000000 0.000000 0.000000 0.000000 0.000000 NONE 0 0 0 0 1 0 0 0 0 0 0 0 0
