@<TRIPOS>MOLECULE
MOL003095
   44    46     1     1     0
SMALL
GASTEIGER


@<TRIPOS>ATOM
      1 C          -4.633610    2.584325   -0.006550 C.ar      1 <1>         0.080751 
      2 C          -4.213787    4.004722    0.028108 C.ar      1 <1>        -0.001055 
      3 C          -2.842224    4.355040    0.053424 C.ar      1 <1>         0.088321 
      4 C          -1.824856    3.276569    0.044759 C.ar      1 <1>         0.081945 
      5 C          -2.205981    1.933447    0.011803 C.ar      1 <1>         0.098812 
      6 C          -3.641752    1.571664   -0.014430 C.ar      1 <1>        -0.000283 
      7 C          -0.343132    3.549145    0.070344 C.2       1 <1>         0.193509 
      8 C           0.558428    2.391476    0.058607 C.2       1 <1>         0.016921 
      9 C           0.079493    1.138055    0.025652 C.2       1 <1>         0.094025 
     10 O          -1.246023    0.916090    0.003117 O.3       1 <1>        -0.307710 
     11 C           0.956338   -0.103439    0.011398 C.ar      1 <1>         0.010633 
     12 C           0.279015   -1.422474   -0.018685 C.ar      1 <1>        -0.019348 
     13 C           0.981461   -2.628598   -0.033798 C.ar      1 <1>         0.108840 
     14 C           2.472560   -2.622173   -0.019051 C.ar      1 <1>         0.135673 
     15 C           3.158752   -1.356194    0.009833 C.ar      1 <1>         0.108840 
     16 C           2.371271   -0.094288    0.024431 C.ar      1 <1>        -0.019348 
     17 O          -6.003787    2.293094   -0.030387 O.3       1 <1>        -0.347746 
     18 O           0.109156    4.681990    0.099857 O.2       1 <1>        -0.287017 
     19 O          -2.436084    5.691735    0.086166 O.3       1 <1>        -0.358955 
     20 O           0.225874   -3.812560   -0.062869 O.3       1 <1>        -0.345234 
     21 C           0.814967   -5.121838   -0.084257 C.3       1 <1>         0.043137 
     22 C          -6.493682    0.942516   -0.062656 C.3       1 <1>         0.043029 
     23 O           4.561721   -1.319704    0.024132 O.3       1 <1>        -0.345234 
     24 O           3.165392   -3.846158   -0.033612 O.3       1 <1>        -0.342951 
     25 C           5.318816   -0.099061    0.043536 C.3       1 <1>         0.043137 
     26 C           4.595641   -3.970857   -0.017431 C.3       1 <1>         0.043242 
     27 H          -4.980393    4.771216    0.033683 H         1 <1>         0.066931 
     28 H          -3.896668    0.520350   -0.039366 H         1 <1>         0.066955 
     29 H           1.612290    2.650909    0.078843 H         1 <1>         0.068219 
     30 H          -0.804050   -1.473673   -0.029905 H         1 <1>         0.065084 
     31 H           2.900468    0.843322    0.045358 H         1 <1>         0.065084 
     32 H          -3.145810    6.323940    0.088021 H         1 <1>         0.217342 
     33 H          -0.005675   -5.853464   -0.106952 H         1 <1>         0.052871 
     34 H           1.428317   -5.267180   -0.986508 H         1 <1>         0.052871 
     35 H           1.411312   -5.304405    0.822599 H         1 <1>         0.052871 
     36 H          -7.592700    0.985133   -0.075954 H         1 <1>         0.052870 
     37 H          -6.156640    0.420885   -0.971540 H         1 <1>         0.052870 
     38 H          -6.179768    0.386222    0.833878 H         1 <1>         0.052870 
     39 H           6.384832   -0.370137    0.048144 H         1 <1>         0.052871 
     40 H           5.120827    0.505240   -0.855010 H         1 <1>         0.052871 
     41 H           5.108219    0.484961    0.952541 H         1 <1>         0.052871 
     42 H           4.831474   -5.044811   -0.032772 H         1 <1>         0.052872 
     43 H           5.046110   -3.509195   -0.909276 H         1 <1>         0.052872 
     44 H           5.022787   -3.539975    0.900916 H         1 <1>         0.052872 
@<TRIPOS>BOND
     1    1    2 1    
     2    1    6 2    
     3    1   17 1    
     4    2    3 2    
     5    2   27 1    
     6    3    4 1    
     7    3   19 1    
     8    4    5 2    
     9    4    7 1    
    10    5    6 1    
    11    5   10 1    
    12    6   28 1    
    13    7    8 1    
    14    7   18 2    
    15    8    9 2    
    16    8   29 1    
    17    9   10 1    
    18    9   11 1    
    19   11   12 1    
    20   11   16 2    
    21   12   13 2    
    22   12   30 1    
    23   13   14 1    
    24   13   20 1    
    25   14   15 2    
    26   14   24 1    
    27   15   16 1    
    28   15   23 1    
    29   16   31 1    
    30   17   22 1    
    31   19   32 1    
    32   20   21 1    
    33   21   33 1    
    34   21   34 1    
    35   21   35 1    
    36   22   36 1    
    37   22   37 1    
    38   22   38 1    
    39   23   25 1    
    40   24   26 1    
    41   25   39 1    
    42   25   40 1    
    43   25   41 1    
    44   26   42 1    
    45   26   43 1    
    46   26   44 1    
@<TRIPOS>SUBSTRUCTURE
     1 ****        1 TEMP              0 ****  ****    0 ROOT 
@<TRIPOS>NORMAL
@<TRIPOS>FF_PBC
FORCE_FIELD_SETUP_FEATURE Force Field Setup information
v1.0  0 0.000000 0.000000 0.000000 0.000000 0.000000 0.000000 NONE 0 0 0 0 1 0 0 0 0 0 0 0 0
