@<TRIPOS>MOLECULE
MOL004937
   34    35     1     1     0
SMALL
GASTEIGER


@<TRIPOS>ATOM
      1 O          -0.072852   -1.983313    0.769177 O.3       1 <1>        -0.345602 
      2 C           0.461841   -0.668232    1.021210 C.3       1 <1>         0.196445 
      3 C           0.247516   -0.259392    2.498415 C.3       1 <1>         0.134597 
      4 C          -1.274496   -0.304829    2.805486 C.3       1 <1>         0.113723 
      5 C          -1.800583   -1.733481    2.520663 C.3       1 <1>         0.106933 
      6 C          -1.483224   -2.089073    1.045634 C.3       1 <1>         0.079206 
      7 O          -3.220419   -1.755643    2.765922 O.3       1 <1>        -0.386859 
      8 O          -1.967527    0.649426    1.974697 O.3       1 <1>        -0.386412 
      9 O           0.804120    1.057702    2.704075 O.3       1 <1>        -0.384090 
     10 O           1.884073   -0.802227    0.805874 O.3       1 <1>        -0.278331 
     11 C           0.982209    0.846890   -3.786229 C.ar      1 <1>         0.102930 
     12 C           0.613442    2.202266   -3.307762 C.ar      1 <1>         0.102225 
     13 C           0.831174    2.544978   -1.962488 C.ar      1 <1>        -0.028668 
     14 C           1.408690    1.558043   -1.022384 C.ar      1 <1>        -0.046281 
     15 C           1.716502    0.262812   -1.458846 C.ar      1 <1>         0.049144 
     16 C           1.509738   -0.094837   -2.882373 C.ar      1 <1>        -0.016537 
     17 C           2.273012   -0.743892   -0.473769 C.2       1 <1>         0.296210 
     18 O           3.144816   -1.504503   -0.855381 O.2       1 <1>        -0.259142 
     19 O           0.055302    3.123789   -4.200145 O.3       1 <1>        -0.357274 
     20 O           0.799909    0.522135   -5.134846 O.3       1 <1>        -0.357260 
     21 H          -0.054988    0.081060    0.400792 H         1 <1>         0.094258 
     22 H           0.779519   -0.992859    3.129426 H         1 <1>         0.067109 
     23 H          -1.437966   -0.057111    3.868596 H         1 <1>         0.064747 
     24 H          -1.287288   -2.448936    3.188581 H         1 <1>         0.064300 
     25 H          -1.777048   -3.131942    0.856585 H         1 <1>         0.058735 
     26 H          -2.059179   -1.443110    0.365276 H         1 <1>         0.058735 
     27 H          -3.610524   -2.614442    2.629172 H         1 <1>         0.209989 
     28 H          -2.910121    0.620486    2.116672 H         1 <1>         0.210005 
     29 H           0.747546    1.344946    3.609720 H         1 <1>         0.210111 
     30 H           0.576439    3.536059   -1.597472 H         1 <1>         0.064423 
     31 H           1.588785    1.847127    0.007662 H         1 <1>         0.062608 
     32 H           1.769536   -1.092980   -3.218231 H         1 <1>         0.065179 
     33 H          -0.433786    3.822005   -3.776653 H         1 <1>         0.217422 
     34 H           1.195730   -0.299121   -5.406956 H         1 <1>         0.217422 
@<TRIPOS>BOND
     1    2    1 1    
     2    1    6 1    
     3    2    3 1    
     4   10    2 1    
     5    2   21 1    
     6    3    4 1    
     7    3    9 1    
     8    3   22 1    
     9    4    5 1    
    10    4    8 1    
    11    4   23 1    
    12    6    5 1    
    13    5    7 1    
    14    5   24 1    
    15    6   25 1    
    16    6   26 1    
    17    7   27 1    
    18    8   28 1    
    19    9   29 1    
    20   17   10 1    
    21   11   12 1    
    22   16   11 2    
    23   11   20 1    
    24   13   12 2    
    25   12   19 1    
    26   14   13 1    
    27   13   30 1    
    28   15   14 2    
    29   14   31 1    
    30   15   16 1    
    31   15   17 1    
    32   16   32 1    
    33   17   18 2    
    34   19   33 1    
    35   20   34 1    
@<TRIPOS>SUBSTRUCTURE
     1 ****       11 TEMP              0 ****  ****    0 ROOT 
@<TRIPOS>NORMAL
@<TRIPOS>FF_PBC
FORCE_FIELD_SETUP_FEATURE Force Field Setup information
v1.0  0 0.000000 0.000000 0.000000 0.000000 0.000000 0.000000 NONE 0 0 0 0 1 0 0 0 0 0 0 0 0
