@<TRIPOS>MOLECULE
MOL000698
   26    26     1     1     0
SMALL
GASTEIGER


@<TRIPOS>ATOM
      1 C           0.491330   -0.100356    0.073489 C.3       1 <1>        -0.016836 
      2 C           1.801607   -0.090903   -0.783987 C.3       1 <1>        -0.040163 
      3 C          -0.304498    1.233515   -0.022478 C.3       1 <1>        -0.027698 
      4 C          -0.428085   -1.244467   -0.299207 C.2       1 <1>        -0.080141 
      5 C           2.610123    1.231301   -0.633016 C.3       1 <1>        -0.062124 
      6 C           2.738862   -1.277798   -0.406795 C.3       1 <1>        -0.062124 
      7 C          -1.681199    1.136861    0.585781 C.2       1 <1>        -0.080539 
      8 C          -1.741803   -1.195284   -0.050070 C.2       1 <1>        -0.062781 
      9 C          -2.366539   -0.012721    0.568607 C.2       1 <1>        -0.054629 
     10 C          -3.757687   -0.121175    1.146803 C.3       1 <1>        -0.040014 
     11 H           0.765251   -0.246662    1.131521 H         1 <1>         0.034849 
     12 H           1.519242   -0.190272   -1.846719 H         1 <1>         0.030119 
     13 H          -0.432367    1.520642   -1.077890 H         1 <1>         0.031322 
     14 H           0.241044    2.034936    0.501223 H         1 <1>         0.031322 
     15 H          -0.043363   -2.149063   -0.768292 H         1 <1>         0.057507 
     16 H           3.568310    1.164066   -1.171350 H         1 <1>         0.023251 
     17 H           2.066845    2.090535   -1.053783 H         1 <1>         0.023251 
     18 H           2.822769    1.427818    0.429102 H         1 <1>         0.023251 
     19 H           3.635883   -1.276521   -1.045577 H         1 <1>         0.023251 
     20 H           2.252684   -2.254783   -0.530953 H         1 <1>         0.023251 
     21 H           3.063127   -1.186515    0.641279 H         1 <1>         0.023251 
     22 H          -2.117965    2.032980    1.029169 H         1 <1>         0.057482 
     23 H          -2.373645   -2.047708   -0.304136 H         1 <1>         0.061709 
     24 H          -4.227570    0.863105    1.294618 H         1 <1>         0.027744 
     25 H          -4.401650   -0.707523    0.474236 H         1 <1>         0.027744 
     26 H          -3.700605   -0.633906    2.118419 H         1 <1>         0.027744 
@<TRIPOS>BOND
     1    1    2 1    
     2    1    3 1    
     3    1    4 1    
     4    1   11 1    
     5    2    5 1    
     6    2    6 1    
     7    2   12 1    
     8    3    7 1    
     9    3   13 1    
    10    3   14 1    
    11    4    8 2    
    12    4   15 1    
    13    5   16 1    
    14    5   17 1    
    15    5   18 1    
    16    6   19 1    
    17    6   20 1    
    18    6   21 1    
    19    7    9 2    
    20    7   22 1    
    21    8    9 1    
    22    8   23 1    
    23    9   10 1    
    24   10   24 1    
    25   10   25 1    
    26   10   26 1    
@<TRIPOS>SUBSTRUCTURE
     1 ****        1 TEMP              0 ****  ****    0 ROOT 
@<TRIPOS>NORMAL
@<TRIPOS>FF_PBC
FORCE_FIELD_SETUP_FEATURE Force Field Setup information
v1.0  0 0.000000 0.000000 0.000000 0.000000 0.000000 0.000000 NONE 0 0 0 0 1 0 0 0 0 0 0 0 0
