@<TRIPOS>MOLECULE
MOL005821
   24    23     1     1     0
SMALL
GASTEIGER


@<TRIPOS>ATOM
      1 C           0.088182   -0.890537    0.492832 C.3       1 <1>         0.055870 
      2 C           1.428148   -0.100198    0.515744 C.3       1 <1>        -0.027108 
      3 O          -0.971928    0.090341    0.464953 O.3       1 <1>        -0.377095 
      4 C           0.022291   -1.882705   -0.700606 C.3       1 <1>        -0.038692 
      5 C           1.644879    0.781283   -0.745769 C.3       1 <1>        -0.053579 
      6 C          -2.304740   -0.449389    0.561146 C.3       1 <1>         0.045185 
      7 C           2.926435    1.645730   -0.614607 C.3       1 <1>        -0.065196 
      8 C          -3.284510    0.743980    0.658806 C.3       1 <1>        -0.041558 
      9 H           0.037098   -1.465057    1.435303 H         1 <1>         0.059297 
     10 H           1.416428    0.553746    1.403563 H         1 <1>         0.028993 
     11 H           2.273596   -0.799751    0.621918 H         1 <1>         0.028993 
     12 H          -0.785379   -2.616219   -0.556791 H         1 <1>         0.025450 
     13 H           0.966898   -2.440462   -0.791486 H         1 <1>         0.025450 
     14 H          -0.164575   -1.340623   -1.639315 H         1 <1>         0.025450 
     15 H           1.747469    0.146504   -1.640403 H         1 <1>         0.026344 
     16 H           0.776283    1.445380   -0.888415 H         1 <1>         0.026344 
     17 H          -2.566047   -1.040275   -0.330861 H         1 <1>         0.055701 
     18 H          -2.414477   -1.079364    1.459532 H         1 <1>         0.055701 
     19 H           3.066367    2.256426   -1.520754 H         1 <1>         0.022979 
     20 H           2.849366    2.320687    0.252086 H         1 <1>         0.022979 
     21 H           3.811505    1.003364   -0.485068 H         1 <1>         0.022979 
     22 H          -4.323965    0.387866    0.736350 H         1 <1>         0.025172 
     23 H          -3.048265    1.349694    1.547527 H         1 <1>         0.025172 
     24 H          -3.191056    1.379477   -0.235686 H         1 <1>         0.025172 
@<TRIPOS>BOND
     1    1    2 1    
     2    1    3 1    
     3    1    4 1    
     4    1    9 1    
     5    2    5 1    
     6    2   10 1    
     7    2   11 1    
     8    3    6 1    
     9    4   12 1    
    10    4   13 1    
    11    4   14 1    
    12    5    7 1    
    13    5   15 1    
    14    5   16 1    
    15    6    8 1    
    16    6   17 1    
    17    6   18 1    
    18    7   19 1    
    19    7   20 1    
    20    7   21 1    
    21    8   22 1    
    22    8   23 1    
    23    8   24 1    
@<TRIPOS>SUBSTRUCTURE
     1 ****        1 TEMP              0 ****  ****    0 ROOT 
@<TRIPOS>NORMAL
@<TRIPOS>FF_PBC
FORCE_FIELD_SETUP_FEATURE Force Field Setup information
v1.0  0 0.000000 0.000000 0.000000 0.000000 0.000000 0.000000 NONE 0 0 0 0 1 0 0 0 0 0 0 0 0
