@<TRIPOS>MOLECULE
MOL007197
   24    25     1     1     0
SMALL
GASTEIGER


@<TRIPOS>ATOM
      1 C           0.355429   -1.184368    0.316164 C.ar      1 <1>         0.031310 
      2 N           1.072982   -0.064018    0.018789 N.pl3     1 <1>        -0.314477 
      3 C           1.155680   -2.466930    0.659304 C.ar      1 <1>        -0.040542 
      4 C          -1.283139   -1.246538    0.329983 C.ar      1 <1>        -0.040542 
      5 C           0.626082    1.184003   -0.314479 C.ar      1 <1>         0.031310 
      6 C           0.342908   -3.843506    1.024828 C.ar      1 <1>        -0.060008 
      7 C          -2.060211   -2.504403    0.663956 C.ar      1 <1>        -0.060008 
      8 C           1.654072    2.227311   -0.591158 C.ar      1 <1>        -0.040542 
      9 C          -0.764689    1.614173   -0.431015 C.ar      1 <1>        -0.040542 
     10 C          -1.172568   -3.971605    1.056468 C.ar      1 <1>        -0.061645 
     11 C           1.311318    3.546301   -0.943191 C.ar      1 <1>        -0.060008 
     12 C          -1.105728    3.009025   -0.803316 C.ar      1 <1>        -0.060008 
     13 C          -0.107889    3.946614   -1.051861 C.ar      1 <1>        -0.061645 
     14 H           2.096765   -0.179213    0.051115 H         1 <1>         0.152151 
     15 H           2.239953   -2.471326    0.662266 H         1 <1>         0.063604 
     16 H          -0.849952   -2.009230    0.534005 H         1 <1>         0.063604 
     17 H           0.929045   -4.725004    1.260717 H         1 <1>         0.061815 
     18 H          -3.148542   -2.503783    0.662002 H         1 <1>         0.061815 
     19 H           2.708490    1.980261   -0.523859 H         1 <1>         0.063604 
     20 H          -1.605392    0.968137   -0.259903 H         1 <1>         0.063604 
     21 H          -1.674039   -4.900948    1.303336 H         1 <1>         0.061760 
     22 H           2.090143    4.277313   -1.136949 H         1 <1>         0.061815 
     23 H          -2.148116    3.302457   -0.882988 H         1 <1>         0.061815 
     24 H          -0.365868    4.965352   -1.323776 H         1 <1>         0.061760 
@<TRIPOS>BOND
     1    1    2 1    
     2    1    3 1    
     3    1    4 2    
     4    2    5 1    
     5    2   14 1    
     6    3    6 2    
     7    3   15 1    
     8    4    7 1    
     9    4   16 1    
    10    5    8 1    
    11    5    9 2    
    12    6   10 1    
    13    6   17 1    
    14    7   10 2    
    15    7   18 1    
    16    8   11 2    
    17    8   19 1    
    18    9   12 1    
    19    9   20 1    
    20   10   21 1    
    21   11   13 1    
    22   11   22 1    
    23   12   13 2    
    24   12   23 1    
    25   13   24 1    
@<TRIPOS>SUBSTRUCTURE
     1 ****        1 TEMP              0 ****  ****    0 ROOT 
@<TRIPOS>NORMAL
@<TRIPOS>FF_PBC
FORCE_FIELD_SETUP_FEATURE Force Field Setup information
v1.0  0 0.000000 0.000000 0.000000 0.000000 0.000000 0.000000 NONE 0 0 0 0 1 0 0 0 0 0 0 0 0
