@<TRIPOS>MOLECULE
MOL002143
   27    28     1     1     0
SMALL
GASTEIGER


@<TRIPOS>ATOM
      1 C           3.000058   -1.454873   -0.094552 C.2       1 <1>         0.299432 
      2 O           2.117590   -1.666104   -1.076673 O.3       1 <1>        -0.273633 
      3 C           1.040243   -0.943104   -0.719891 C.2       1 <1>         0.090507 
      4 C           1.246998   -0.215490    0.592823 C.ar      1 <1>         0.020564 
      5 C           0.408724    0.687932    1.420215 C.ar      1 <1>        -0.021563 
      6 C           0.971738    1.200935    2.648871 C.ar      1 <1>         0.073259 
      7 C           2.350501    0.814350    3.040730 C.ar      1 <1>        -0.031162 
      8 C           3.103511   -0.051242    2.213398 C.ar      1 <1>        -0.045779 
      9 C           2.464604   -0.537916    0.971482 C.ar      1 <1>         0.056601 
     10 O           4.113247   -1.952427   -0.070371 O.2       1 <1>        -0.258805 
     11 O           0.244488    2.055870    3.479644 O.3       1 <1>        -0.359812 
     12 C          -0.042862   -0.935194   -1.508741 C.2       1 <1>        -0.052746 
     13 C          -1.322192   -0.178353   -1.254443 C.3       1 <1>        -0.032268 
     14 C          -2.361561   -0.390959   -2.388524 C.3       1 <1>        -0.052380 
     15 C          -3.666894    0.400227   -2.112211 C.3       1 <1>        -0.064997 
     16 H          -0.594034    0.965169    1.130446 H         1 <1>         0.065011 
     17 H           2.773612    1.199195    3.962271 H         1 <1>         0.064341 
     18 H           4.113039   -0.350857    2.474371 H         1 <1>         0.062626 
     19 H          -0.628065    2.259101    3.162332 H         1 <1>         0.217314 
     20 H           0.024466   -1.537535   -2.415881 H         1 <1>         0.059789 
     21 H          -1.761057   -0.528310   -0.306838 H         1 <1>         0.030812 
     22 H          -1.092185    0.896703   -1.189010 H         1 <1>         0.030812 
     23 H          -1.933069   -0.055985   -3.348373 H         1 <1>         0.026559 
     24 H          -2.600774   -1.464677   -2.472275 H         1 <1>         0.026559 
     25 H          -4.389743    0.234761   -2.926723 H         1 <1>         0.022987 
     26 H          -4.124031    0.070160   -1.166317 H         1 <1>         0.022987 
     27 H          -3.456151    1.479028   -2.045463 H         1 <1>         0.022987 
@<TRIPOS>BOND
     1    1    2 1    
     2    1    9 1    
     3    1   10 2    
     4    2    3 1    
     5    3    4 1    
     6    3   12 2    
     7    4    5 1    
     8    4    9 2    
     9    5    6 2    
    10    5   16 1    
    11    6    7 1    
    12    6   11 1    
    13    7    8 2    
    14    7   17 1    
    15    8    9 1    
    16    8   18 1    
    17   11   19 1    
    18   12   13 1    
    19   12   20 1    
    20   13   14 1    
    21   13   21 1    
    22   13   22 1    
    23   14   15 1    
    24   14   23 1    
    25   14   24 1    
    26   15   25 1    
    27   15   26 1    
    28   15   27 1    
@<TRIPOS>SUBSTRUCTURE
     1 ****        1 TEMP              0 ****  ****    0 ROOT 
@<TRIPOS>NORMAL
@<TRIPOS>FF_PBC
FORCE_FIELD_SETUP_FEATURE Force Field Setup information
v1.0  0 0.000000 0.000000 0.000000 0.000000 0.000000 0.000000 NONE 0 0 0 0 1 0 0 0 0 0 0 0 0
