@<TRIPOS>MOLECULE
MOL000922
   29    29     1     1     0
SMALL
GASTEIGER


@<TRIPOS>ATOM
      1 C           0.842872   -0.589144    0.391481 C.3       1 <1>         0.072095 
      2 C          -0.366791   -1.472749    0.819011 C.3       1 <1>        -0.005272 
      3 C          -1.669979   -0.719332    0.721715 C.2       1 <1>        -0.082313 
      4 C          -1.750778    0.618604    0.781148 C.2       1 <1>        -0.076348 
      5 C          -0.532595    1.499413    0.955061 C.3       1 <1>        -0.029388 
      6 C           0.753960    0.692210    1.272438 C.3       1 <1>        -0.019795 
      7 O           2.074591   -1.278684    0.679930 O.3       1 <1>        -0.388005 
      8 C           0.849521   -0.282445   -1.150527 C.3       1 <1>        -0.017487 
      9 C           1.979842    0.718358   -1.538480 C.3       1 <1>        -0.060049 
     10 C           1.024149   -1.566013   -2.019788 C.3       1 <1>        -0.060049 
     11 C          -3.073623    1.343910    0.672755 C.3       1 <1>        -0.043785 
     12 H          -0.264028   -1.779001    1.871799 H         1 <1>         0.033522 
     13 H          -0.409096   -2.400515    0.234575 H         1 <1>         0.033522 
     14 H          -2.576332   -1.315332    0.606526 H         1 <1>         0.057245 
     15 H          -0.398527    2.079600    0.029569 H         1 <1>         0.031079 
     16 H          -0.709044    2.219175    1.771049 H         1 <1>         0.031079 
     17 H           1.650905    1.321073    1.169603 H         1 <1>         0.029605 
     18 H           0.712774    0.389675    2.332090 H         1 <1>         0.029605 
     19 H           2.181690   -1.512894    1.595529 H         1 <1>         0.210183 
     20 H          -0.112975    0.165621   -1.447117 H         1 <1>         0.032317 
     21 H           1.814708    1.716458   -1.110001 H         1 <1>         0.023322 
     22 H           2.030107    0.852311   -2.630073 H         1 <1>         0.023322 
     23 H           2.954548    0.341506   -1.192890 H         1 <1>         0.023322 
     24 H           0.161447   -2.242118   -1.947449 H         1 <1>         0.023322 
     25 H           1.121218   -1.304805   -3.085007 H         1 <1>         0.023322 
     26 H           1.929922   -2.114445   -1.720237 H         1 <1>         0.023322 
     27 H          -3.036495    2.048077   -0.171939 H         1 <1>         0.027436 
     28 H          -3.260257    1.910206    1.597437 H         1 <1>         0.027436 
     29 H          -3.921733    0.661274    0.511889 H         1 <1>         0.027436 
@<TRIPOS>BOND
     1    1    2 1    
     2    1    6 1    
     3    1    7 1    
     4    1    8 1    
     5    2    3 1    
     6    2   12 1    
     7    2   13 1    
     8    3    4 2    
     9    3   14 1    
    10    4    5 1    
    11    4   11 1    
    12    5    6 1    
    13    5   15 1    
    14    5   16 1    
    15    6   17 1    
    16    6   18 1    
    17    7   19 1    
    18    8    9 1    
    19    8   10 1    
    20    8   20 1    
    21    9   21 1    
    22    9   22 1    
    23    9   23 1    
    24   10   24 1    
    25   10   25 1    
    26   10   26 1    
    27   11   27 1    
    28   11   28 1    
    29   11   29 1    
@<TRIPOS>SUBSTRUCTURE
     1 ****        1 TEMP              0 ****  ****    0 ROOT 
@<TRIPOS>NORMAL
@<TRIPOS>FF_PBC
FORCE_FIELD_SETUP_FEATURE Force Field Setup information
v1.0  0 0.000000 0.000000 0.000000 0.000000 0.000000 0.000000 NONE 0 0 0 0 1 0 0 0 0 0 0 0 0
