@<TRIPOS>MOLECULE
MOL004718
   78    81     1     1     0
SMALL
GASTEIGER


@<TRIPOS>ATOM
      1 O          -5.499354   -1.379449   -4.777345 O.3       1 <1>        -0.391776 
      2 C          -0.483927    0.209808    0.606196 C.3       1 <1>        -0.022188 
      3 C          -0.702914   -0.855252   -0.498546 C.3       1 <1>        -0.013943 
      4 C          -3.220456   -0.393948   -0.596178 C.3       1 <1>        -0.013941 
      5 C          -4.676018   -0.989895   -0.524637 C.3       1 <1>        -0.022289 
      6 C           1.007551    0.595587    0.338208 C.3       1 <1>        -0.029061 
      7 C          -2.105987   -1.427796   -0.511936 C.2       1 <1>        -0.066224 
      8 C          -1.523718    1.340725    0.332907 C.3       1 <1>        -0.046253 
      9 C          -2.975136    0.790130    0.396289 C.3       1 <1>        -0.045475 
     10 C          -4.680996   -2.357465   -1.273514 C.3       1 <1>        -0.029326 
     11 C           0.541005   -1.763301   -0.367224 C.3       1 <1>        -0.045710 
     12 C           1.684360   -0.754302   -0.062586 C.3       1 <1>        -0.048617 
     13 C          -5.750193   -0.053879   -1.194448 C.3       1 <1>        -0.044483 
     14 C          -3.698247   -3.362720   -0.617470 C.3       1 <1>        -0.031056 
     15 C          -0.655895   -0.408549    2.030569 C.3       1 <1>        -0.058747 
     16 C          -2.329666   -2.750110   -0.496115 C.2       1 <1>        -0.083920 
     17 C           1.820766    1.334694    1.450721 C.3       1 <1>        -0.022385 
     18 C          -4.351600   -2.201912   -2.792966 C.3       1 <1>        -0.023225 
     19 C          -5.090248   -1.219536    0.966197 C.3       1 <1>        -0.058754 
     20 C          -6.242573   -0.513500   -2.598395 C.3       1 <1>        -0.026327 
     21 C          -5.053437   -0.986842   -3.465128 C.3       1 <1>         0.055552 
     22 C           1.255816    2.726418    1.841764 C.3       1 <1>        -0.058684 
     23 C           3.239019    1.564463    0.964339 C.2       1 <1>        -0.084547 
     24 C           4.318298    1.339011    1.728082 C.2       1 <1>        -0.084339 
     25 C           5.758223    1.579352    1.314642 C.3       1 <1>        -0.020812 
     26 C           6.428819    0.273388    0.779011 C.3       1 <1>        -0.040461 
     27 C           5.974974    2.807799    0.377792 C.3       1 <1>        -0.049381 
     28 C           5.801665   -0.234498   -0.548851 C.3       1 <1>        -0.062133 
     29 C           6.376029   -0.860978    1.842855 C.3       1 <1>        -0.062133 
     30 C           5.450490    4.124520    1.012803 C.3       1 <1>        -0.064738 
     31 H           3.351185    1.941777   -0.050078 H         1 <1>         0.057182 
     32 H           4.162776    0.951931    2.736434 H         1 <1>         0.057190 
     33 H          -5.931472   -0.679285   -5.256673 H         1 <1>         0.209776 
     34 H          -0.602128   -0.376674   -1.489041 H         1 <1>         0.035106 
     35 H          -3.084263    0.037597   -1.597834 H         1 <1>         0.035106 
     36 H           1.009078    1.251430   -0.550032 H         1 <1>         0.031176 
     37 H          -1.431110    2.153642    1.065162 H         1 <1>         0.027096 
     38 H          -1.362752    1.782582   -0.663858 H         1 <1>         0.027096 
     39 H          -3.666093    1.621036    0.184091 H         1 <1>         0.027132 
     40 H          -3.153208    0.491142    1.436573 H         1 <1>         0.027132 
     41 H          -5.686955   -2.803996   -1.186455 H         1 <1>         0.030996 
     42 H           0.727039   -2.356255   -1.278613 H         1 <1>         0.027124 
     43 H           0.421849   -2.462579    0.475027 H         1 <1>         0.027124 
     44 H           2.311419   -0.609053   -0.958172 H         1 <1>         0.026846 
     45 H           2.328954   -1.150846    0.739482 H         1 <1>         0.026846 
     46 H          -6.658985    0.025336   -0.574913 H         1 <1>         0.027158 
     47 H          -5.352455    0.966647   -1.295423 H         1 <1>         0.027158 
     48 H          -4.036290   -3.699410    0.374102 H         1 <1>         0.031026 
     49 H          -3.637045   -4.259442   -1.256015 H         1 <1>         0.031026 
     50 H          -1.549815   -1.044938    2.093975 H         1 <1>         0.023534 
     51 H          -0.748778    0.390338    2.780163 H         1 <1>         0.023534 
     52 H           0.197016   -1.035964    2.323704 H         1 <1>         0.023534 
     53 H          -1.509810   -3.461408   -0.413335 H         1 <1>         0.057189 
     54 H           1.841496    0.716723    2.362179 H         1 <1>         0.034310 
     55 H          -4.681267   -3.125149   -3.298220 H         1 <1>         0.029296 
     56 H          -3.266216   -2.119441   -2.963772 H         1 <1>         0.029296 
     57 H          -5.979230   -1.865507    1.030626 H         1 <1>         0.023534 
     58 H          -4.282782   -1.687535    1.548168 H         1 <1>         0.023534 
     59 H          -5.350832   -0.269820    1.457733 H         1 <1>         0.023534 
     60 H          -6.761804    0.322437   -3.097096 H         1 <1>         0.029020 
     61 H          -6.967216   -1.339948   -2.519372 H         1 <1>         0.029020 
     62 H          -4.348639   -0.143469   -3.575469 H         1 <1>         0.059314 
     63 H           1.987192    3.268757    2.462066 H         1 <1>         0.023544 
     64 H           0.339509    2.632081    2.439391 H         1 <1>         0.023544 
     65 H           1.047245    3.328651    0.944379 H         1 <1>         0.023544 
     66 H           6.296485    1.846767    2.241210 H         1 <1>         0.034534 
     67 H           7.494667    0.489705    0.584686 H         1 <1>         0.030110 
     68 H           5.487508    2.672978   -0.598117 H         1 <1>         0.026833 
     69 H           7.054973    2.928134    0.188051 H         1 <1>         0.026833 
     70 H           6.291171   -1.167782   -0.867827 H         1 <1>         0.023251 
     71 H           5.920823    0.495520   -1.361804 H         1 <1>         0.023251 
     72 H           4.731685   -0.438786   -0.410196 H         1 <1>         0.023251 
     73 H           6.952630   -1.734662    1.500585 H         1 <1>         0.023251 
     74 H           6.807516   -0.521285    2.797143 H         1 <1>         0.023251 
     75 H           5.339358   -1.184703    2.020935 H         1 <1>         0.023251 
     76 H           5.645385    4.972208    0.336727 H         1 <1>         0.022995 
     77 H           5.958209    4.321289    1.969846 H         1 <1>         0.022995 
     78 H           4.366940    4.073353    1.196039 H         1 <1>         0.022995 
@<TRIPOS>BOND
     1   21    1 1    
     2    1   33 1    
     3    3    2 1    
     4    2    6 1    
     5    8    2 1    
     6    2   15 1    
     7    7    3 1    
     8    3   11 1    
     9    3   34 1    
    10    5    4 1    
    11    4    7 1    
    12    4    9 1    
    13    4   35 1    
    14   10    5 1    
    15    5   13 1    
    16    5   19 1    
    17   12    6 1    
    18    6   17 1    
    19    6   36 1    
    20   16    7 2    
    21    9    8 1    
    22    8   37 1    
    23    8   38 1    
    24    9   39 1    
    25    9   40 1    
    26   10   14 1    
    27   18   10 1    
    28   10   41 1    
    29   11   12 1    
    30   11   42 1    
    31   11   43 1    
    32   12   44 1    
    33   12   45 1    
    34   13   20 1    
    35   13   46 1    
    36   13   47 1    
    37   14   16 1    
    38   14   48 1    
    39   14   49 1    
    40   15   50 1    
    41   15   51 1    
    42   15   52 1    
    43   16   53 1    
    44   17   22 1    
    45   17   23 1    
    46   17   54 1    
    47   18   21 1    
    48   18   55 1    
    49   18   56 1    
    50   19   57 1    
    51   19   58 1    
    52   19   59 1    
    53   20   21 1    
    54   20   60 1    
    55   20   61 1    
    56   21   62 1    
    57   22   63 1    
    58   22   64 1    
    59   22   65 1    
    60   23   24 2    
    61   23   31 1    
    62   24   25 1    
    63   24   32 1    
    64   25   26 1    
    65   25   27 1    
    66   25   66 1    
    67   26   28 1    
    68   26   29 1    
    69   26   67 1    
    70   27   30 1    
    71   27   68 1    
    72   27   69 1    
    73   28   70 1    
    74   28   71 1    
    75   28   72 1    
    76   29   73 1    
    77   29   74 1    
    78   29   75 1    
    79   30   76 1    
    80   30   77 1    
    81   30   78 1    
@<TRIPOS>SUBSTRUCTURE
     1 ****        4 TEMP              0 ****  ****    0 ROOT 
@<TRIPOS>NORMAL
@<TRIPOS>FF_PBC
FORCE_FIELD_SETUP_FEATURE Force Field Setup information
v1.0  0 0.000000 0.000000 0.000000 0.000000 0.000000 0.000000 NONE 0 0 0 0 1 0 0 0 0 0 0 0 0
