@<TRIPOS>MOLECULE
MOL012943
  149   157     1     1     0
SMALL
GASTEIGER


@<TRIPOS>ATOM
      1 O           2.807447    3.889674   -2.870581 O.3       1 <1>        -0.347589 
      2 O           2.261819    4.993487   -0.712433 O.3       1 <1>        -0.340889 
      3 O          -0.472417    3.883932    0.135182 O.3       1 <1>        -0.341865 
      4 O           0.053947   -4.967346   -1.650488 O.3       1 <1>        -0.344903 
      5 O          -0.878501    4.429170    2.431272 O.3       1 <1>        -0.343033 
      6 O          -2.232155   -4.592718   -1.032813 O.3       1 <1>        -0.346052 
      7 O          -3.557441    4.064821    2.242397 O.3       1 <1>        -0.304265 
      8 O          -3.356385    1.025819    1.948175 O.3       1 <1>        -0.306597 
      9 O          -2.470431   -7.323859   -0.213167 O.3       1 <1>        -0.384104 
     10 O          -1.133436    0.847181    3.484911 O.3       1 <1>        -0.386552 
     11 O          -0.848546   -7.033383    2.078873 O.3       1 <1>        -0.386402 
     12 O          -1.370309   -4.305543    2.689612 O.3       1 <1>        -0.340511 
     13 O          -5.343611    4.150928    3.498979 O.2       1 <1>        -0.265271 
     14 O          -4.700725   -0.521885    1.155526 O.2       1 <1>        -0.265272 
     15 O          -0.805705   -2.020305    2.316673 O.3       1 <1>        -0.343069 
     16 O          -2.144202   -1.275369    4.775381 O.3       1 <1>        -0.384104 
     17 O          -0.370014   -2.696732    6.496595 O.3       1 <1>        -0.386402 
     18 O           0.616767   -0.618198    4.855582 O.3       1 <1>        -0.386579 
     19 C           1.823258    1.816536   -2.252471 C.3       1 <1>         0.008081 
     20 C           1.836104    0.236957   -2.142308 C.3       1 <1>        -0.020557 
     21 C           0.365458    2.367814   -2.321136 C.3       1 <1>        -0.022245 
     22 C           0.860524   -0.378834   -3.243004 C.3       1 <1>        -0.029356 
     23 C           0.524879    3.896515   -2.147253 C.3       1 <1>         0.045533 
     24 C           1.998243    3.979381   -1.687111 C.3       1 <1>         0.176965 
     25 C           2.331960    2.633636   -1.044060 C.3       1 <1>         0.010330 
     26 C           0.679855   -1.943043   -3.113918 C.3       1 <1>        -0.025246 
     27 C           2.732375    2.513093   -3.317451 C.3       1 <1>         0.057503 
     28 C          -0.363293    1.897356   -3.595460 C.3       1 <1>        -0.048816 
     29 C           3.224840   -0.414029   -2.458728 C.3       1 <1>        -0.046476 
     30 C          -0.503218    0.361761   -3.481743 C.3       1 <1>        -0.048911 
     31 C           2.075954   -2.663337   -3.170333 C.3       1 <1>        -0.027836 
     32 C          -0.461879    4.590336   -1.152369 C.3       1 <1>         0.080445 
     33 C           3.205574   -1.972774   -2.332652 C.3       1 <1>        -0.048617 
     34 C           1.583155   -0.051275   -0.609856 C.3       1 <1>        -0.058701 
     35 C           2.010493   -4.253823   -3.066254 C.3       1 <1>        -0.005230 
     36 C          -0.144801   -2.594820   -4.276374 C.3       1 <1>        -0.044721 
     37 C          -0.108645   -2.232848   -1.816157 C.3       1 <1>        -0.059019 
     38 C           0.050957    6.066660   -1.050200 C.3       1 <1>         0.006636 
     39 C           0.545493   -4.842113   -3.029455 C.3       1 <1>         0.067174 
     40 C          -0.364031   -4.136205   -4.089109 C.3       1 <1>        -0.025470 
     41 C           1.605990    6.233272   -0.964559 C.3       1 <1>         0.082921 
     42 C          -1.879602    4.571192   -1.802018 C.3       1 <1>        -0.035173 
     43 C           2.759981   -4.857405   -4.302127 C.3       1 <1>        -0.057181 
     44 C           2.751949   -4.822740   -1.811269 C.3       1 <1>        -0.057181 
     45 C           1.911556    7.281854    0.094990 C.2       1 <1>        -0.056719 
     46 C          -1.471863    4.283097    1.125890 C.3       1 <1>         0.189292 
     47 C          -1.248594   -5.576185   -1.419427 C.3       1 <1>         0.187820 
     48 C          -2.744285    3.384978    1.252317 C.3       1 <1>         0.147710 
     49 C           2.531567    7.191567    1.285637 C.2       1 <1>        -0.077208 
     50 C          -2.286026    1.977923    1.725813 C.3       1 <1>         0.127585 
     51 C          -1.196913   -6.651239   -0.299961 C.3       1 <1>         0.134108 
     52 C          -0.494228    3.205702    3.090969 C.3       1 <1>         0.087334 
     53 C          -1.632492    2.145432    3.119344 C.3       1 <1>         0.110361 
     54 C           2.608394    8.413308    2.183470 C.3       1 <1>        -0.043969 
     55 C           3.187309    5.964992    1.896005 C.3       1 <1>        -0.043969 
     56 C          -0.851152   -6.008070    1.066611 C.3       1 <1>         0.114072 
     57 C          -1.969841   -3.932718    0.231750 C.3       1 <1>         0.079557 
     58 C          -1.857305   -4.886786    1.442879 C.3       1 <1>         0.113449 
     59 C           0.842609    2.634669    2.556158 C.3       1 <1>        -0.036060 
     60 C          -4.814162    3.660291    2.517041 C.2       1 <1>         0.259530 
     61 C          -3.780491    0.248061    0.934541 C.2       1 <1>         0.259456 
     62 C          -5.620506    2.667279    1.711166 C.3       1 <1>         0.021446 
     63 C          -1.726422   -2.927088    2.957797 C.3       1 <1>         0.188308 
     64 C          -3.157786    0.270303   -0.436963 C.3       1 <1>         0.021445 
     65 C          -1.748129   -2.633450    4.483121 C.3       1 <1>         0.134121 
     66 C          -0.340461   -2.895594    5.067705 C.3       1 <1>         0.113972 
     67 C           0.556625   -2.066438    2.816048 C.3       1 <1>         0.087307 
     68 C           0.698881   -1.975193    4.369017 C.3       1 <1>         0.109478 
     69 C           1.370566   -3.265272    2.260019 C.3       1 <1>        -0.036060 
     70 H          -0.235797    2.017735   -1.470376 H         1 <1>         0.031229 
     71 H           1.355340   -0.206547   -4.213713 H         1 <1>         0.031156 
     72 H           0.469359    4.399584   -3.127112 H         1 <1>         0.038366 
     73 H           2.420199   -2.417215   -4.189140 H         1 <1>         0.031210 
     74 H          -2.481122   -7.972170    0.485717 H         1 <1>         0.210110 
     75 H          -0.857364    0.760965    4.393050 H         1 <1>         0.210002 
     76 H          -0.646383   -6.675771    2.939197 H         1 <1>         0.210005 
     77 H          -2.984124   -1.022312    4.405216 H         1 <1>         0.210110 
     78 H           0.478810   -2.813325    6.910909 H         1 <1>         0.210005 
     79 H           1.338887   -0.075061    4.552423 H         1 <1>         0.210002 
     80 H           1.753916    2.566789   -0.120066 H         1 <1>         0.032341 
     81 H           3.405196    2.523983   -0.814789 H         1 <1>         0.032341 
     82 H           3.769522    2.149665   -3.267165 H         1 <1>         0.056658 
     83 H           2.403898    2.431763   -4.360896 H         1 <1>         0.056658 
     84 H          -1.362898    2.353762   -3.666831 H         1 <1>         0.026833 
     85 H           0.174007    2.172908   -4.512840 H         1 <1>         0.026833 
     86 H           4.000810   -0.004160   -1.791546 H         1 <1>         0.027088 
     87 H           3.539639   -0.181193   -3.488542 H         1 <1>         0.027088 
     88 H          -0.958730    0.063298   -4.439299 H         1 <1>         0.026837 
     89 H          -1.241312    0.149842   -2.698715 H         1 <1>         0.026837 
     90 H           4.186190   -2.339466   -2.684585 H         1 <1>         0.026846 
     91 H           3.152807   -2.254569   -1.276223 H         1 <1>         0.026846 
     92 H           0.647563    0.377270   -0.233570 H         1 <1>         0.023534 
     93 H           2.402373    0.359632   -0.003841 H         1 <1>         0.023534 
     94 H           1.590146   -1.087712   -0.285849 H         1 <1>         0.023534 
     95 H          -1.149776   -2.153990   -4.355618 H         1 <1>         0.027149 
     96 H           0.354076   -2.389044   -5.238385 H         1 <1>         0.027149 
     97 H          -0.449462   -1.362614   -1.265285 H         1 <1>         0.023525 
     98 H          -1.037606   -2.773643   -2.012782 H         1 <1>         0.023525 
     99 H           0.546796   -2.805802   -1.159554 H         1 <1>         0.023525 
    100 H          -0.281208    6.627958   -1.939018 H         1 <1>         0.032120 
    101 H          -0.423101    6.559874   -0.192480 H         1 <1>         0.032120 
    102 H           0.606638   -5.905063   -3.322191 H         1 <1>         0.060224 
    103 H          -0.206454   -4.612075   -5.072288 H         1 <1>         0.029047 
    104 H          -1.415619   -4.338125   -3.832739 H         1 <1>         0.029047 
    105 H           2.018823    6.594868   -1.923434 H         1 <1>         0.064228 
    106 H          -2.269568    3.546106   -1.826285 H         1 <1>         0.025742 
    107 H          -2.589718    5.207193   -1.255688 H         1 <1>         0.025742 
    108 H          -1.852994    4.942040   -2.838015 H         1 <1>         0.025742 
    109 H           2.813400   -5.956179   -4.254073 H         1 <1>         0.023587 
    110 H           3.792970   -4.478731   -4.348016 H         1 <1>         0.023587 
    111 H           2.257495   -4.587710   -5.242786 H         1 <1>         0.023587 
    112 H           3.829391   -4.603501   -1.835939 H         1 <1>         0.023587 
    113 H           2.341378   -4.426716   -0.872659 H         1 <1>         0.023587 
    114 H           2.647426   -5.918216   -1.770221 H         1 <1>         0.023587 
    115 H           1.521862    8.259733   -0.194225 H         1 <1>         0.059695 
    116 H          -1.841348    5.304325    0.964986 H         1 <1>         0.093786 
    117 H          -1.625404   -6.107540   -2.308382 H         1 <1>         0.093738 
    118 H          -3.240444    3.359599    0.279025 H         1 <1>         0.068031 
    119 H          -1.503758    1.586533    1.062609 H         1 <1>         0.065686 
    120 H          -0.413266   -7.384212   -0.560164 H         1 <1>         0.067095 
    121 H          -0.296739    3.521815    4.129566 H         1 <1>         0.062075 
    122 H          -2.423676    2.459422    3.823672 H         1 <1>         0.064611 
    123 H           2.042161    9.280398    1.811687 H         1 <1>         0.027428 
    124 H           2.201736    8.154898    3.173385 H         1 <1>         0.027428 
    125 H           3.658205    8.717813    2.304830 H         1 <1>         0.027428 
    126 H           3.357254    5.110222    1.236882 H         1 <1>         0.027428 
    127 H           2.574269    5.626080    2.743683 H         1 <1>         0.027428 
    128 H           4.176727    6.248830    2.284059 H         1 <1>         0.027428 
    129 H           0.159013   -5.579547    0.970147 H         1 <1>         0.064757 
    130 H          -2.794345   -3.215545    0.354840 H         1 <1>         0.058744 
    131 H          -1.039754   -3.371835    0.256969 H         1 <1>         0.058744 
    132 H          -2.850790   -5.330986    1.615488 H         1 <1>         0.064678 
    133 H           1.394180    2.112983    3.352476 H         1 <1>         0.025536 
    134 H           1.471760    3.453565    2.180526 H         1 <1>         0.025536 
    135 H           0.668386    1.910540    1.755443 H         1 <1>         0.025536 
    136 H          -5.248914    2.443593    0.705827 H         1 <1>         0.033023 
    137 H          -5.718783    1.735960    2.287537 H         1 <1>         0.033023 
    138 H          -6.631548    3.083827    1.590152 H         1 <1>         0.033023 
    139 H          -2.750646   -2.708443    2.616194 H         1 <1>         0.093751 
    140 H          -3.135614    1.276112   -0.873771 H         1 <1>         0.033023 
    141 H          -2.141546   -0.126011   -0.356031 H         1 <1>         0.033023 
    142 H          -3.722804   -0.384083   -1.118307 H         1 <1>         0.033023 
    143 H          -2.456571   -3.324680    4.971440 H         1 <1>         0.067095 
    144 H          -0.086412   -3.953007    4.877745 H         1 <1>         0.064757 
    145 H           1.023157   -1.167413    2.379888 H         1 <1>         0.062075 
    146 H           1.694430   -2.344920    4.676099 H         1 <1>         0.064584 
    147 H           2.445871   -3.118676    2.448113 H         1 <1>         0.025536 
    148 H           1.229580   -3.341754    1.174644 H         1 <1>         0.025536 
    149 H           1.076153   -4.210311    2.733493 H         1 <1>         0.025536 
@<TRIPOS>BOND
     1    1   24 1    
     2   27    1 1    
     3   24    2 1    
     4    2   41 1    
     5   32    3 1    
     6    3   46 1    
     7    4   39 1    
     8   47    4 1    
     9   46    5 1    
    10    5   52 1    
    11    6   47 1    
    12   57    6 1    
    13   48    7 1    
    14    7   60 1    
    15   50    8 1    
    16    8   61 1    
    17   51    9 1    
    18    9   74 1    
    19   53   10 1    
    20   10   75 1    
    21   56   11 1    
    22   11   76 1    
    23   12   58 1    
    24   63   12 1    
    25   60   13 2    
    26   61   14 2    
    27   63   15 1    
    28   15   67 1    
    29   65   16 1    
    30   16   77 1    
    31   66   17 1    
    32   17   78 1    
    33   68   18 1    
    34   18   79 1    
    35   20   19 1    
    36   19   21 1    
    37   19   25 1    
    38   19   27 1    
    39   22   20 1    
    40   29   20 1    
    41   20   34 1    
    42   21   23 1    
    43   28   21 1    
    44   21   70 1    
    45   26   22 1    
    46   22   30 1    
    47   22   71 1    
    48   23   24 1    
    49   23   32 1    
    50   23   72 1    
    51   25   24 1    
    52   25   80 1    
    53   25   81 1    
    54   31   26 1    
    55   36   26 1    
    56   26   37 1    
    57   27   82 1    
    58   27   83 1    
    59   30   28 1    
    60   28   84 1    
    61   28   85 1    
    62   33   29 1    
    63   29   86 1    
    64   29   87 1    
    65   30   88 1    
    66   30   89 1    
    67   31   33 1    
    68   35   31 1    
    69   31   73 1    
    70   32   38 1    
    71   32   42 1    
    72   33   90 1    
    73   33   91 1    
    74   34   92 1    
    75   34   93 1    
    76   34   94 1    
    77   39   35 1    
    78   35   43 1    
    79   35   44 1    
    80   40   36 1    
    81   36   95 1    
    82   36   96 1    
    83   37   97 1    
    84   37   98 1    
    85   37   99 1    
    86   38   41 1    
    87   38  100 1    
    88   38  101 1    
    89   39   40 1    
    90   39  102 1    
    91   40  103 1    
    92   40  104 1    
    93   41   45 1    
    94   41  105 1    
    95   42  106 1    
    96   42  107 1    
    97   42  108 1    
    98   43  109 1    
    99   43  110 1    
   100   43  111 1    
   101   44  112 1    
   102   44  113 1    
   103   44  114 1    
   104   45   49 2    
   105   45  115 1    
   106   46   48 1    
   107   46  116 1    
   108   51   47 1    
   109   47  117 1    
   110   48   50 1    
   111   48  118 1    
   112   49   54 1    
   113   49   55 1    
   114   50   53 1    
   115   50  119 1    
   116   56   51 1    
   117   51  120 1    
   118   52   53 1    
   119   52   59 1    
   120   52  121 1    
   121   53  122 1    
   122   54  123 1    
   123   54  124 1    
   124   54  125 1    
   125   55  126 1    
   126   55  127 1    
   127   55  128 1    
   128   58   56 1    
   129   56  129 1    
   130   58   57 1    
   131   57  130 1    
   132   57  131 1    
   133   58  132 1    
   134   59  133 1    
   135   59  134 1    
   136   59  135 1    
   137   60   62 1    
   138   61   64 1    
   139   62  136 1    
   140   62  137 1    
   141   62  138 1    
   142   65   63 1    
   143   63  139 1    
   144   64  140 1    
   145   64  141 1    
   146   64  142 1    
   147   66   65 1    
   148   65  143 1    
   149   66   68 1    
   150   66  144 1    
   151   67   68 1    
   152   67   69 1    
   153   67  145 1    
   154   68  146 1    
   155   69  147 1    
   156   69  148 1    
   157   69  149 1    
@<TRIPOS>SUBSTRUCTURE
     1 ****       19 TEMP              0 ****  ****    0 ROOT 
@<TRIPOS>NORMAL
@<TRIPOS>FF_PBC
FORCE_FIELD_SETUP_FEATURE Force Field Setup information
v1.0  0 0.000000 0.000000 0.000000 0.000000 0.000000 0.000000 NONE 0 0 0 0 1 0 0 0 0 0 0 0 0
