@<TRIPOS>MOLECULE
MOL004480
    8     7     1     1     0
SMALL
GASTEIGER


@<TRIPOS>ATOM
      1 C          -0.423892   -0.386998   -0.000084 C.2       1 <1>         0.256468 
      2 C           0.346361    0.904107    0.000019 C.3       1 <1>         0.021240 
      3 O          -1.644859   -0.412397   -0.000141 O.2       1 <1>        -0.265485 
      4 O           0.318179   -1.495826   -0.000090 O.3       1 <1>        -0.331475 
      5 H          -0.339228    1.764892   -0.000208 H         1 <1>         0.033017 
      6 H           0.981741    0.952969    0.896581 H         1 <1>         0.033017 
      7 H           0.982193    0.952858   -0.896228 H         1 <1>         0.033017 
      8 H          -0.220594   -2.279607   -0.000149 H         1 <1>         0.220199 
@<TRIPOS>BOND
     1    1    2 1    
     2    1    3 2    
     3    1    4 1    
     4    2    5 1    
     5    2    6 1    
     6    2    7 1    
     7    4    8 1    
@<TRIPOS>SUBSTRUCTURE
     1 ****        1 TEMP              0 ****  ****    0 ROOT 
@<TRIPOS>NORMAL
@<TRIPOS>FF_PBC
FORCE_FIELD_SETUP_FEATURE Force Field Setup information
v1.0  0 0.000000 0.000000 0.000000 0.000000 0.000000 0.000000 NONE 0 0 0 0 1 0 0 0 0 0 0 0 0
