@<TRIPOS>MOLECULE
MOL002916
   32    34     1     1     0
SMALL
GASTEIGER


@<TRIPOS>ATOM
      1 O          -0.580797   -0.368392    0.089426 O.3       1 <1>        -0.304961 
      2 O           2.494564    1.034488   -1.069095 O.3       1 <1>        -0.354459 
      3 O          -1.576003    4.409408   -0.615196 O.3       1 <1>        -0.358954 
      4 O           0.851161    3.235086   -1.058896 O.2       1 <1>        -0.284270 
      5 O          -0.386223   -2.762962   -1.189672 O.3       1 <1>        -0.359075 
      6 O           3.466961   -0.373531    0.822438 O.3       1 <1>        -0.359075 
      7 O          -5.111491    1.364441    0.955155 O.3       1 <1>        -0.359667 
      8 C          -1.069711    2.046191   -0.276897 C.ar      1 <1>         0.084553 
      9 C           0.709639   -0.219309   -0.269332 C.2       1 <1>         0.128557 
     10 C          -1.491933    0.688566    0.115805 C.ar      1 <1>         0.099003 
     11 C           1.541719   -1.482859   -0.213410 C.ar      1 <1>         0.067450 
     12 C           1.213064    0.960423   -0.672076 C.2       1 <1>         0.151975 
     13 C           0.370372    2.172554   -0.699246 C.2       1 <1>         0.223069 
     14 C          -1.990228    3.128882   -0.244864 C.ar      1 <1>         0.088401 
     15 C          -2.813479    0.457556    0.518131 C.ar      1 <1>        -0.000529 
     16 C           0.925000   -2.743585   -0.708379 C.ar      1 <1>         0.084751 
     17 C           2.867484   -1.516532    0.303216 C.ar      1 <1>         0.084751 
     18 C          -3.790668    1.575805    0.556292 C.ar      1 <1>         0.077519 
     19 C          -3.387203    2.867854    0.186386 C.ar      1 <1>        -0.001302 
     20 C           1.654468   -3.932098   -0.697935 C.ar      1 <1>        -0.031112 
     21 C           3.627845   -2.787274    0.308441 C.ar      1 <1>        -0.031112 
     22 C           3.041978   -3.964276   -0.181570 C.ar      1 <1>        -0.056859 
     23 H          -3.112266   -0.545487    0.800469 H         1 <1>         0.066947 
     24 H          -4.110857    3.674434    0.218788 H         1 <1>         0.066923 
     25 H           1.195534   -4.842129   -1.069409 H         1 <1>         0.064342 
     26 H           4.641813   -2.799087    0.693882 H         1 <1>         0.064342 
     27 H           3.599928   -4.895349   -0.180527 H         1 <1>         0.061916 
     28 H           2.724141    1.906002   -1.385735 H         1 <1>         0.217537 
     29 H          -2.260659    5.066909   -0.566674 H         1 <1>         0.217342 
     30 H          -0.922697   -2.064345   -0.828260 H         1 <1>         0.217340 
     31 H           3.623680    0.257127    0.127907 H         1 <1>         0.217340 
     32 H          -5.294882    0.470897    1.222623 H         1 <1>         0.217316 
@<TRIPOS>BOND
     1    1    9 1    
     2   10    1 1    
     3   12    2 1    
     4    2   28 1    
     5   14    3 1    
     6    3   29 1    
     7   13    4 2    
     8   16    5 1    
     9    5   30 1    
    10   17    6 1    
    11    6   31 1    
    12   18    7 1    
    13    7   32 1    
    14   10    8 1    
    15    8   13 1    
    16    8   14 2    
    17    9   11 1    
    18    9   12 2    
    19   15   10 2    
    20   11   16 1    
    21   11   17 2    
    22   13   12 1    
    23   14   19 1    
    24   15   18 1    
    25   15   23 1    
    26   16   20 2    
    27   17   21 1    
    28   18   19 2    
    29   19   24 1    
    30   20   22 1    
    31   20   25 1    
    32   21   22 2    
    33   21   26 1    
    34   22   27 1    
@<TRIPOS>SUBSTRUCTURE
     1 ****        1 TEMP              0 ****  ****    0 ROOT 
@<TRIPOS>NORMAL
@<TRIPOS>FF_PBC
FORCE_FIELD_SETUP_FEATURE Force Field Setup information
v1.0  0 0.000000 0.000000 0.000000 0.000000 0.000000 0.000000 NONE 0 0 0 0 1 0 0 0 0 0 0 0 0
