@<TRIPOS>MOLECULE
MOL008434
   39    39     1     1     0
SMALL
GASTEIGER


@<TRIPOS>ATOM
      1 C           0.368245   -2.062608    0.272064 C.3       1 <1>        -0.022150 
      2 C           1.317502   -0.875023    0.285477 C.2       1 <1>        -0.066405 
      3 C          -1.092374   -1.646382   -0.065005 C.3       1 <1>        -0.043307 
      4 C           1.399245   -0.006687   -0.951206 C.3       1 <1>        -0.027509 
      5 C           2.817591    0.594700   -1.127276 C.3       1 <1>        -0.028008 
      6 C           0.878788   -3.176423   -0.683368 C.3       1 <1>        -0.058683 
      7 C          -1.659893   -0.637556    0.969862 C.3       1 <1>        -0.033996 
      8 C           2.062191   -0.561556    1.354379 C.2       1 <1>        -0.062298 
      9 C           3.333878    1.158762    0.173618 C.2       1 <1>        -0.072322 
     10 C           2.973802    0.595671    1.333509 C.2       1 <1>        -0.062799 
     11 C          -3.102374   -0.321977    0.640049 C.2       1 <1>        -0.085268 
     12 C           4.266329    2.343935    0.083578 C.3       1 <1>        -0.043484 
     13 C          -3.548851    0.824368    0.100956 C.2       1 <1>        -0.079617 
     14 C          -5.021220    1.049086   -0.169721 C.3       1 <1>        -0.044050 
     15 C          -2.629166    1.965036   -0.274075 C.3       1 <1>        -0.044050 
     16 H           0.343216   -2.515791    1.278383 H         1 <1>         0.034310 
     17 H          -1.730157   -2.546028   -0.064087 H         1 <1>         0.027383 
     18 H          -1.143297   -1.202059   -1.071493 H         1 <1>         0.027383 
     19 H           1.140922   -0.547115   -1.873428 H         1 <1>         0.031320 
     20 H           0.677417    0.814619   -0.824669 H         1 <1>         0.031320 
     21 H           2.784622    1.368669   -1.911534 H         1 <1>         0.031303 
     22 H           3.520064   -0.191911   -1.446847 H         1 <1>         0.031303 
     23 H           0.827828   -2.868231   -1.737185 H         1 <1>         0.023544 
     24 H           1.923855   -3.426157   -0.441431 H         1 <1>         0.023544 
     25 H           0.269817   -4.086870   -0.568683 H         1 <1>         0.023544 
     26 H          -1.629427   -1.083813    1.977142 H         1 <1>         0.030758 
     27 H          -1.033564    0.265045    1.002343 H         1 <1>         0.030758 
     28 H           2.012567   -1.147670    2.272172 H         1 <1>         0.061724 
     29 H           3.351956    0.974784    2.282988 H         1 <1>         0.061707 
     30 H          -3.817668   -1.113121    0.869305 H         1 <1>         0.057145 
     31 H           4.641462    2.654633    1.070205 H         1 <1>         0.027445 
     32 H           3.736195    3.195562   -0.368906 H         1 <1>         0.027445 
     33 H           5.128383    2.083636   -0.549104 H         1 <1>         0.027445 
     34 H          -5.356713    1.949363    0.367121 H         1 <1>         0.027427 
     35 H          -5.652338    0.206269    0.150439 H         1 <1>         0.027427 
     36 H          -5.175807    1.200596   -1.248756 H         1 <1>         0.027427 
     37 H          -3.153272    2.733230   -0.862954 H         1 <1>         0.027427 
     38 H          -1.790693    1.596418   -0.882894 H         1 <1>         0.027427 
     39 H          -2.238663    2.441394    0.637837 H         1 <1>         0.027427 
@<TRIPOS>BOND
     1    1    2 1    
     2    1    3 1    
     3    1    6 1    
     4    1   16 1    
     5    2    4 1    
     6    2    8 2    
     7    3    7 1    
     8    3   17 1    
     9    3   18 1    
    10    4    5 1    
    11    4   19 1    
    12    4   20 1    
    13    5    9 1    
    14    5   21 1    
    15    5   22 1    
    16    6   23 1    
    17    6   24 1    
    18    6   25 1    
    19    7   11 1    
    20    7   26 1    
    21    7   27 1    
    22    8   10 1    
    23    8   28 1    
    24    9   10 2    
    25    9   12 1    
    26   10   29 1    
    27   11   13 2    
    28   11   30 1    
    29   12   31 1    
    30   12   32 1    
    31   12   33 1    
    32   13   14 1    
    33   13   15 1    
    34   14   34 1    
    35   14   35 1    
    36   14   36 1    
    37   15   37 1    
    38   15   38 1    
    39   15   39 1    
@<TRIPOS>SUBSTRUCTURE
     1 ****        1 TEMP              0 ****  ****    0 ROOT 
@<TRIPOS>NORMAL
@<TRIPOS>FF_PBC
FORCE_FIELD_SETUP_FEATURE Force Field Setup information
v1.0  0 0.000000 0.000000 0.000000 0.000000 0.000000 0.000000 NONE 0 0 0 0 1 0 0 0 0 0 0 0 0
