@<TRIPOS>MOLECULE
MOL005100
   36    38     1     1     0
SMALL
GASTEIGER


@<TRIPOS>ATOM
      1 C          -1.090957   -1.161458   -1.669794 C.ar      1 <1>         0.077223 
      2 C          -1.486026    0.135890   -1.676685 C.ar      1 <1>         0.092361 
      3 C           0.225535   -1.511766   -2.326099 C.2       1 <1>         0.170906 
      4 C          -1.942568   -2.194626   -1.027721 C.ar      1 <1>         0.087967 
      5 O          -0.692742    1.123580   -2.269680 O.3       1 <1>        -0.335585 
      6 C          -2.771200    0.521254   -1.050963 C.ar      1 <1>        -0.001026 
      7 C           0.979867   -0.420891   -3.029374 C.3       1 <1>         0.041565 
      8 O           0.683533   -2.642063   -2.296227 O.2       1 <1>        -0.291783 
      9 C          -3.123359   -1.823744   -0.451551 C.ar      1 <1>        -0.001314 
     10 O          -1.522803   -3.528972   -1.025150 O.3       1 <1>        -0.358967 
     11 C           0.724539    0.882421   -2.236593 C.3       1 <1>         0.097240 
     12 C          -3.552662   -0.401216   -0.467072 C.ar      1 <1>         0.077503 
     13 C           1.175549    0.862157   -0.763869 C.ar      1 <1>        -0.015387 
     14 O          -4.757935   -0.004159    0.116153 O.3       1 <1>        -0.359667 
     15 C           2.093277   -0.162332   -0.201536 C.ar      1 <1>        -0.023737 
     16 C           0.685268    1.868968    0.093705 C.ar      1 <1>        -0.053492 
     17 C           2.459484   -0.132706    1.150195 C.ar      1 <1>         0.102776 
     18 C           1.066207    1.907874    1.525354 C.ar      1 <1>        -0.028818 
     19 C           1.937310    0.925320    2.051344 C.ar      1 <1>         0.105421 
     20 O           3.324080   -1.110816    1.644013 O.3       1 <1>        -0.357262 
     21 O           2.330497    0.910066    3.398240 O.3       1 <1>        -0.345349 
     22 C           1.838901    1.873862    4.343834 C.3       1 <1>         0.043135 
     23 H          -3.079771    1.560394   -1.065806 H         1 <1>         0.066932 
     24 H           2.054506   -0.643105   -3.113426 H         1 <1>         0.037400 
     25 H           0.570343   -0.318969   -4.046329 H         1 <1>         0.037400 
     26 H          -3.757605   -2.565350    0.021087 H         1 <1>         0.066923 
     27 H          -2.065528   -4.130038   -0.527387 H         1 <1>         0.217342 
     28 H           1.229487    1.724978   -2.736136 H         1 <1>         0.065572 
     29 H          -5.255035   -0.717119    0.500970 H         1 <1>         0.217316 
     30 H           2.501022   -0.953375   -0.817471 H         1 <1>         0.064759 
     31 H           0.016109    2.630774   -0.293778 H         1 <1>         0.062192 
     32 H           0.661287    2.699512    2.143028 H         1 <1>         0.064420 
     33 H           3.490309   -0.982938    2.572911 H         1 <1>         0.217422 
     34 H           2.281818    1.639211    5.322954 H         1 <1>         0.052871 
     35 H           2.141602    2.894412    4.063495 H         1 <1>         0.052871 
     36 H           0.743500    1.813558    4.435542 H         1 <1>         0.052871 
@<TRIPOS>BOND
     1    1    2 2    
     2    1    3 1    
     3    1    4 1    
     4    2    5 1    
     5    2    6 1    
     6    3    7 1    
     7    3    8 2    
     8    4    9 2    
     9    4   10 1    
    10    5   11 1    
    11    6   12 2    
    12    6   23 1    
    13    7   11 1    
    14    7   24 1    
    15    7   25 1    
    16    9   12 1    
    17    9   26 1    
    18   10   27 1    
    19   11   13 1    
    20   11   28 1    
    21   12   14 1    
    22   13   15 1    
    23   13   16 2    
    24   14   29 1    
    25   15   17 2    
    26   15   30 1    
    27   16   18 1    
    28   16   31 1    
    29   17   19 1    
    30   17   20 1    
    31   18   19 2    
    32   18   32 1    
    33   19   21 1    
    34   20   33 1    
    35   21   22 1    
    36   22   34 1    
    37   22   35 1    
    38   22   36 1    
@<TRIPOS>SUBSTRUCTURE
     1 ****        1 TEMP              0 ****  ****    0 ROOT 
@<TRIPOS>NORMAL
@<TRIPOS>FF_PBC
FORCE_FIELD_SETUP_FEATURE Force Field Setup information
v1.0  0 0.000000 0.000000 0.000000 0.000000 0.000000 0.000000 NONE 0 0 0 0 1 0 0 0 0 0 0 0 0
