@<TRIPOS>MOLECULE
MOL003480
   40    43     1     1     0
SMALL
GASTEIGER


@<TRIPOS>ATOM
      1 O          -2.969265   -0.781921    0.580403 O.3       1 <1>        -0.367372 
      2 C          -0.543882   -0.896204    0.022431 C.3       1 <1>         0.005586 
      3 C           0.688960   -0.000811    0.203735 C.3       1 <1>        -0.027260 
      4 C          -1.891488   -0.111506   -0.012070 C.3       1 <1>         0.091598 
      5 C          -0.350106   -0.561787    2.348692 C.3       1 <1>        -0.029998 
      6 C           0.599098    0.513074    1.672810 C.3       1 <1>        -0.028294 
      7 C          -0.416021   -1.732985    1.312792 C.3       1 <1>        -0.040744 
      8 C          -2.551941    0.305173    1.371465 C.3       1 <1>         0.088603 
      9 C          -1.828497   -0.156368    2.655899 C.3       1 <1>        -0.011730 
     10 C          -0.239207   -1.484646   -1.375974 C.3       1 <1>        -0.035488 
     11 C           0.682451    0.847787   -1.086644 C.3       1 <1>        -0.048859 
     12 C           0.256657   -0.218509   -2.153985 C.3       1 <1>        -0.049579 
     13 C           2.009571    0.438899    2.342561 C.3       1 <1>        -0.059279 
     14 C           0.165227    2.006695    1.718948 C.3       1 <1>        -0.059279 
     15 C          -2.034576    0.853603    3.822338 C.3       1 <1>        -0.059706 
     16 C          -1.429633   -2.227390   -2.038163 C.3       1 <1>        -0.061819 
     17 H           1.609343   -0.609689    0.120032 H         1 <1>         0.031229 
     18 H          -2.168921    0.548526   -0.846847 H         1 <1>         0.062770 
     19 H           0.071770   -0.941653    3.294748 H         1 <1>         0.030961 
     20 H          -1.252189   -2.437974    1.438836 H         1 <1>         0.027451 
     21 H           0.513976   -2.325794    1.328363 H         1 <1>         0.027451 
     22 H          -3.375940    1.034400    1.409837 H         1 <1>         0.062480 
     23 H          -2.348038   -1.068167    3.002134 H         1 <1>         0.032672 
     24 H           0.586625   -2.212748   -1.278438 H         1 <1>         0.030437 
     25 H           1.667946    1.296463   -1.295477 H         1 <1>         0.026838 
     26 H          -0.055569    1.662054   -1.028927 H         1 <1>         0.026838 
     27 H          -0.538489    0.192531   -2.796945 H         1 <1>         0.026812 
     28 H           1.104685   -0.490649   -2.804280 H         1 <1>         0.026812 
     29 H           0.872915    2.609482    1.129603 H         1 <1>         0.023516 
     30 H           0.205226    2.391722    2.747411 H         1 <1>         0.023516 
     31 H          -0.834680    2.179100    1.302549 H         1 <1>         0.023516 
     32 H           1.960955    0.796573    3.382717 H         1 <1>         0.023516 
     33 H           2.732235    1.063259    1.794344 H         1 <1>         0.023516 
     34 H           2.394568   -0.592838    2.363978 H         1 <1>         0.023516 
     35 H          -3.071196    0.791763    4.192233 H         1 <1>         0.023331 
     36 H          -1.879831    1.894961    3.517994 H         1 <1>         0.023331 
     37 H          -1.358645    0.620734    4.659446 H         1 <1>         0.023331 
     38 H          -1.758462   -3.052729   -1.387880 H         1 <1>         0.023260 
     39 H          -1.113526   -2.643762   -3.007164 H         1 <1>         0.023260 
     40 H          -2.285750   -1.560180   -2.214558 H         1 <1>         0.023260 
@<TRIPOS>BOND
     1    4    1 1    
     2    1    8 1    
     3    2    3 1    
     4    2    4 1    
     5    2    7 1    
     6    2   10 1    
     7    3    6 1    
     8    3   11 1    
     9    3   17 1    
    10    4    8 1    
    11    4   18 1    
    12    6    5 1    
    13    5    7 1    
    14    5    9 1    
    15    5   19 1    
    16    6   13 1    
    17    6   14 1    
    18    7   20 1    
    19    7   21 1    
    20    8    9 1    
    21    8   22 1    
    22    9   15 1    
    23    9   23 1    
    24   10   12 1    
    25   10   16 1    
    26   10   24 1    
    27   11   12 1    
    28   11   25 1    
    29   11   26 1    
    30   12   27 1    
    31   12   28 1    
    32   13   32 1    
    33   13   33 1    
    34   13   34 1    
    35   14   29 1    
    36   14   30 1    
    37   14   31 1    
    38   15   35 1    
    39   15   36 1    
    40   15   37 1    
    41   16   38 1    
    42   16   39 1    
    43   16   40 1    
@<TRIPOS>SUBSTRUCTURE
     1 ****        2 TEMP              0 ****  ****    0 ROOT 
@<TRIPOS>NORMAL
@<TRIPOS>FF_PBC
FORCE_FIELD_SETUP_FEATURE Force Field Setup information
v1.0  0 0.000000 0.000000 0.000000 0.000000 0.000000 0.000000 NONE 0 0 0 0 1 0 0 0 0 0 0 0 0
