@<TRIPOS>MOLECULE
MOL005295
   38    37     1     1     0
SMALL
GASTEIGER


@<TRIPOS>ATOM
      1 C          -1.592091   -3.404314   -0.059679 C.3       1 <1>        -0.044128 
      2 C          -0.385513   -2.506294    0.362556 C.3       1 <1>        -0.050468 
      3 C          -0.473304   -1.022537   -0.095344 C.3       1 <1>        -0.052815 
      4 C           0.782299   -0.222829    0.351552 C.3       1 <1>        -0.053048 
      5 C           0.701855    1.262254   -0.097831 C.3       1 <1>        -0.053057 
      6 C          -2.926094   -2.941276    0.601994 C.3       1 <1>        -0.053312 
      7 C           1.959158    2.057221    0.349864 C.3       1 <1>        -0.053065 
      8 C          -1.715187   -3.514133   -1.606516 C.3       1 <1>        -0.062423 
      9 C           1.881899    3.541450   -0.101729 C.3       1 <1>        -0.053306 
     10 C           3.139009    4.335530    0.347033 C.3       1 <1>        -0.055911 
     11 C          -4.085960   -3.958659    0.426905 C.3       1 <1>        -0.065034 
     12 C           3.063576    5.815950   -0.109121 C.3       1 <1>        -0.065276 
     13 H          -1.365767   -4.416221    0.322840 H         1 <1>         0.029804 
     14 H          -0.293973   -2.528634    1.461194 H         1 <1>         0.026785 
     15 H           0.538566   -2.943334   -0.051214 H         1 <1>         0.026785 
     16 H          -0.548516   -0.969062   -1.192431 H         1 <1>         0.026537 
     17 H          -1.363072   -0.542828    0.340485 H         1 <1>         0.026537 
     18 H           0.870414   -0.264758    1.449753 H         1 <1>         0.026529 
     19 H           1.683692   -0.684389   -0.084432 H         1 <1>         0.026529 
     20 H           0.614904    1.306874   -1.195969 H         1 <1>         0.026528 
     21 H          -0.197218    1.727622    0.338750 H         1 <1>         0.026528 
     22 H          -2.758752   -2.803354    1.683299 H         1 <1>         0.026521 
     23 H          -3.250311   -1.976931    0.180686 H         1 <1>         0.026521 
     24 H           2.045076    2.014755    1.448176 H         1 <1>         0.026528 
     25 H           2.858715    1.591174   -0.084997 H         1 <1>         0.026528 
     26 H          -2.379598   -4.343910   -1.890342 H         1 <1>         0.023242 
     27 H          -0.730601   -3.710035   -2.058451 H         1 <1>         0.023242 
     28 H          -2.121470   -2.587390   -2.037685 H         1 <1>         0.023242 
     29 H           1.797714    3.584561   -1.200145 H         1 <1>         0.026520 
     30 H           0.982584    4.008933    0.332127 H         1 <1>         0.026520 
     31 H           3.224592    4.301024    1.446033 H         1 <1>         0.026265 
     32 H           4.042150    3.871854   -0.083859 H         1 <1>         0.026265 
     33 H          -4.964936   -3.625390    1.001548 H         1 <1>         0.022986 
     34 H          -4.386739   -4.045185   -0.627651 H         1 <1>         0.022986 
     35 H          -3.788174   -4.952539    0.795307 H         1 <1>         0.022986 
     36 H           2.178630    6.307214    0.324581 H         1 <1>         0.022978 
     37 H           2.999698    5.877065   -1.206738 H         1 <1>         0.022978 
     38 H           3.962845    6.360321    0.220052 H         1 <1>         0.022978 
@<TRIPOS>BOND
     1    1    2 1    
     2    1    6 1    
     3    1    8 1    
     4    1   13 1    
     5    2    3 1    
     6    2   14 1    
     7    2   15 1    
     8    3    4 1    
     9    3   16 1    
    10    3   17 1    
    11    4    5 1    
    12    4   18 1    
    13    4   19 1    
    14    5    7 1    
    15    5   20 1    
    16    5   21 1    
    17    6   11 1    
    18    6   22 1    
    19    6   23 1    
    20    7    9 1    
    21    7   24 1    
    22    7   25 1    
    23    8   26 1    
    24    8   27 1    
    25    8   28 1    
    26    9   10 1    
    27    9   29 1    
    28    9   30 1    
    29   10   12 1    
    30   10   31 1    
    31   10   32 1    
    32   11   33 1    
    33   11   34 1    
    34   11   35 1    
    35   12   36 1    
    36   12   37 1    
    37   12   38 1    
@<TRIPOS>SUBSTRUCTURE
     1 ****        1 TEMP              0 ****  ****    0 ROOT 
@<TRIPOS>NORMAL
@<TRIPOS>FF_PBC
FORCE_FIELD_SETUP_FEATURE Force Field Setup information
v1.0  0 0.000000 0.000000 0.000000 0.000000 0.000000 0.000000 NONE 0 0 0 0 1 0 0 0 0 0 0 0 0
