@<TRIPOS>MOLECULE
MOL004671
   29    29     1     1     0
SMALL
GASTEIGER


@<TRIPOS>ATOM
      1 O          -2.211890    1.037987   -0.250573 O.3       1 <1>        -0.391191 
      2 C           0.197216    0.802554   -0.332311 C.3       1 <1>         0.005619 
      3 C          -0.046269   -1.829871    1.062494 C.3       1 <1>        -0.041511 
      4 C          -1.160764    0.054367   -0.267727 C.3       1 <1>         0.061936 
      5 C          -1.230374   -0.825420    1.009624 C.3       1 <1>        -0.023705 
      6 C           1.384380   -0.195855   -0.274846 C.3       1 <1>        -0.043928 
      7 C           1.303614   -1.063338    1.008378 C.3       1 <1>        -0.049760 
      8 C           0.280719    1.693974   -1.559200 C.2       1 <1>        -0.074178 
      9 C          -0.128067   -2.705714    2.342584 C.3       1 <1>        -0.062334 
     10 C           0.397973    3.180466   -1.302358 C.3       1 <1>        -0.043694 
     11 C           0.250799    1.202060   -2.806124 C.2       1 <1>        -0.099365 
     12 H          -3.083264    0.655360   -0.232910 H         1 <1>         0.209801 
     13 H           0.253422    1.433147    0.571029 H         1 <1>         0.037044 
     14 H          -0.109600   -2.498111    0.185483 H         1 <1>         0.029893 
     15 H          -1.267007   -0.590856   -1.156787 H         1 <1>         0.059908 
     16 H          -2.184689   -1.376931    1.019034 H         1 <1>         0.029280 
     17 H          -1.206768   -0.172325    1.896548 H         1 <1>         0.029280 
     18 H           2.334045    0.364912   -0.284165 H         1 <1>         0.027186 
     19 H           1.373164   -0.859832   -1.153199 H         1 <1>         0.027186 
     20 H           2.141996   -1.779850    1.016002 H         1 <1>         0.026805 
     21 H           1.400615   -0.417920    1.896709 H         1 <1>         0.026805 
     22 H           0.701188   -3.429870    2.365462 H         1 <1>         0.023243 
     23 H          -1.076410   -3.264985    2.364804 H         1 <1>         0.023243 
     24 H          -0.070194   -2.078144    3.245182 H         1 <1>         0.023243 
     25 H           0.452412    3.769790   -2.230163 H         1 <1>         0.027437 
     26 H          -0.478766    3.521521   -0.731067 H         1 <1>         0.027437 
     27 H           1.306928    3.381006   -0.715311 H         1 <1>         0.027437 
     28 H           0.311317    1.855254   -3.675835 H         1 <1>         0.053441 
     29 H           0.164273    0.136625   -3.010659 H         1 <1>         0.053441 
@<TRIPOS>BOND
     1    4    1 1    
     2    1   12 1    
     3    4    2 1    
     4    2    6 1    
     5    2    8 1    
     6    2   13 1    
     7    5    3 1    
     8    3    7 1    
     9    3    9 1    
    10    3   14 1    
    11    4    5 1    
    12    4   15 1    
    13    5   16 1    
    14    5   17 1    
    15    6    7 1    
    16    6   18 1    
    17    6   19 1    
    18    7   20 1    
    19    7   21 1    
    20    8   10 1    
    21    8   11 2    
    22    9   22 1    
    23    9   23 1    
    24    9   24 1    
    25   10   25 1    
    26   10   26 1    
    27   10   27 1    
    28   11   28 1    
    29   11   29 1    
@<TRIPOS>SUBSTRUCTURE
     1 ****        1 TEMP              0 ****  ****    0 ROOT 
@<TRIPOS>NORMAL
@<TRIPOS>FF_PBC
FORCE_FIELD_SETUP_FEATURE Force Field Setup information
v1.0  0 0.000000 0.000000 0.000000 0.000000 0.000000 0.000000 NONE 0 0 0 0 1 0 0 0 0 0 0 0 0
