@<TRIPOS>MOLECULE
MOL004846
   80    84     1     1     0
SMALL
GASTEIGER


@<TRIPOS>ATOM
      1 C          -5.168913   -3.158803   -0.122875 C.3       1 <1>        -0.038057 
      2 C          -3.768639   -3.800110   -0.297017 C.3       1 <1>        -0.046118 
      3 C          -2.597777   -2.856719    0.143111 C.3       1 <1>        -0.025442 
      4 C          -2.701819   -1.509814   -0.637808 C.3       1 <1>        -0.012608 
      5 C          -4.116432   -0.866825   -0.478854 C.3       1 <1>        -0.031522 
      6 C          -5.272653   -1.822590   -0.916343 C.3       1 <1>         0.053721 
      7 C          -1.253075   -3.530641   -0.272736 C.3       1 <1>        -0.046277 
      8 C          -0.006276   -2.618128   -0.076054 C.3       1 <1>        -0.042869 
      9 C          -0.093249   -1.172950   -0.697680 C.3       1 <1>        -0.004332 
     10 C          -1.491485   -0.574308   -0.519025 C.2       1 <1>        -0.056185 
     11 C           0.993265   -0.204878   -0.011325 C.3       1 <1>        -0.012656 
     12 C           0.934844    1.259950   -0.566089 C.3       1 <1>         0.033332 
     13 C          -0.494039    1.714403   -0.332595 C.2       1 <1>         0.160199 
     14 C          -1.612305    0.745880   -0.316363 C.2       1 <1>        -0.018839 
     15 C           2.451057   -0.695780   -0.304100 C.3       1 <1>        -0.045876 
     16 C           3.611832    0.120189    0.335008 C.3       1 <1>        -0.048587 
     17 C           3.236577    1.579317    0.717975 C.3       1 <1>        -0.027446 
     18 C           2.183572    2.225541   -0.259416 C.3       1 <1>        -0.018250 
     19 C           4.448606    2.451222    1.245544 C.3       1 <1>        -0.005578 
     20 C           3.861413    3.750395    1.887032 C.3       1 <1>         0.060638 
     21 C           2.889159    4.488383    0.928424 C.3       1 <1>        -0.025820 
     22 C           1.742204    3.567064    0.420453 C.3       1 <1>        -0.044330 
     23 O           4.941380    4.622252    2.276855 O.3       1 <1>        -0.391248 
     24 C          -6.645464   -1.153499   -0.625676 C.3       1 <1>        -0.050480 
     25 C          -2.648332   -2.687379    1.695784 C.3       1 <1>        -0.059016 
     26 C           0.049612   -1.325200   -2.254714 C.3       1 <1>        -0.055302 
     27 C           0.687068   -0.118942    1.528844 C.3       1 <1>        -0.058099 
     28 O          -0.791739    2.884524   -0.170874 O.2       1 <1>        -0.292347 
     29 C           2.845727    2.580189   -1.633757 C.3       1 <1>        -0.058618 
     30 C           5.186307    1.675275    2.392256 C.3       1 <1>        -0.057190 
     31 C           5.565290    2.826743    0.207651 C.3       1 <1>        -0.057190 
     32 C          -5.240598   -2.066578   -2.415594 C.2       1 <1>         0.265560 
     33 O          -4.633090   -1.332200   -3.184219 O.2       1 <1>        -0.264567 
     34 O          -5.913299   -3.130746   -2.856082 O.3       1 <1>        -0.330857 
     35 H          -5.937721   -3.862350   -0.480548 H         1 <1>         0.027550 
     36 H          -5.383826   -2.979574    0.940044 H         1 <1>         0.027550 
     37 H          -3.663948   -4.071886   -1.359320 H         1 <1>         0.027098 
     38 H          -3.733795   -4.736602    0.281579 H         1 <1>         0.027098 
     39 H          -2.678905   -1.792402   -1.697666 H         1 <1>         0.035146 
     40 H          -4.205360    0.018232   -1.128245 H         1 <1>         0.028121 
     41 H          -4.263372   -0.541249    0.562357 H         1 <1>         0.028121 
     42 H          -1.122231   -4.456081    0.310877 H         1 <1>         0.027096 
     43 H          -1.296782   -3.843035   -1.327235 H         1 <1>         0.027096 
     44 H           0.841909   -3.154991   -0.529000 H         1 <1>         0.027392 
     45 H           0.208338   -2.599530    0.997908 H         1 <1>         0.027392 
     46 H           0.911461    1.141086   -1.653469 H         1 <1>         0.039170 
     47 H          -2.576339    1.217987   -0.137345 H         1 <1>         0.065218 
     48 H           2.586101   -1.747899   -0.014766 H         1 <1>         0.027107 
     49 H           2.618202   -0.637320   -1.386931 H         1 <1>         0.027107 
     50 H           4.479596    0.105179   -0.342531 H         1 <1>         0.026846 
     51 H           3.923019   -0.414369    1.247740 H         1 <1>         0.026846 
     52 H           2.690253    1.460625    1.653869 H         1 <1>         0.031221 
     53 H           3.294164    3.471083    2.794296 H         1 <1>         0.059852 
     54 H           3.439744    4.939721    0.093227 H         1 <1>         0.029038 
     55 H           2.437064    5.328025    1.483973 H         1 <1>         0.029038 
     56 H           1.156394    4.177477   -0.285995 H         1 <1>         0.027160 
     57 H           1.112577    3.334187    1.294998 H         1 <1>         0.027160 
     58 H           4.651692    5.413399    2.722776 H         1 <1>         0.209800 
     59 H          -6.769571   -0.969748    0.450022 H         1 <1>         0.023986 
     60 H          -6.729235   -0.189364   -1.148163 H         1 <1>         0.023986 
     61 H          -7.470429   -1.797858   -0.961578 H         1 <1>         0.023986 
     62 H          -1.820501   -2.085562    2.069863 H         1 <1>         0.023525 
     63 H          -3.563270   -2.202349    2.052181 H         1 <1>         0.023525 
     64 H          -2.582061   -3.670534    2.185510 H         1 <1>         0.023525 
     65 H          -0.208332   -0.405086   -2.794388 H         1 <1>         0.023829 
     66 H           1.048650   -1.644974   -2.569285 H         1 <1>         0.023829 
     67 H          -0.622755   -2.089597   -2.656558 H         1 <1>         0.023829 
     68 H          -0.308680   -0.488894    1.771612 H         1 <1>         0.023553 
     69 H           0.636435    0.903626    1.925872 H         1 <1>         0.023553 
     70 H           1.412088   -0.699808    2.118011 H         1 <1>         0.023553 
     71 H           3.627048    3.337124   -1.581582 H         1 <1>         0.023535 
     72 H           3.286915    1.685679   -2.095344 H         1 <1>         0.023535 
     73 H           2.092617    2.990726   -2.325058 H         1 <1>         0.023535 
     74 H           5.886315    2.336198    2.926474 H         1 <1>         0.023587 
     75 H           5.776127    0.840932    1.983752 H         1 <1>         0.023587 
     76 H           4.491519    1.272189    3.145392 H         1 <1>         0.023587 
     77 H           5.718163    2.041116   -0.543582 H         1 <1>         0.023587 
     78 H           6.535538    2.979303    0.705790 H         1 <1>         0.023587 
     79 H           5.383533    3.775399   -0.308082 H         1 <1>         0.023587 
     80 H          -5.833650   -3.245720   -3.796680 H         1 <1>         0.220226 
@<TRIPOS>BOND
     1    1    2 1    
     2    1    6 1    
     3    1   35 1    
     4    1   36 1    
     5    2    3 1    
     6    2   37 1    
     7    2   38 1    
     8    3    4 1    
     9    3    7 1    
    10    3   25 1    
    11    4    5 1    
    12    4   10 1    
    13    4   39 1    
    14    5    6 1    
    15    5   40 1    
    16    5   41 1    
    17    6   24 1    
    18    6   32 1    
    19    7    8 1    
    20    7   42 1    
    21    7   43 1    
    22    8    9 1    
    23    8   44 1    
    24    8   45 1    
    25    9   10 1    
    26    9   11 1    
    27    9   26 1    
    28   10   14 2    
    29   11   12 1    
    30   11   15 1    
    31   11   27 1    
    32   12   13 1    
    33   12   18 1    
    34   12   46 1    
    35   13   14 1    
    36   13   28 2    
    37   14   47 1    
    38   15   16 1    
    39   15   48 1    
    40   15   49 1    
    41   16   17 1    
    42   16   50 1    
    43   16   51 1    
    44   17   18 1    
    45   17   19 1    
    46   17   52 1    
    47   18   22 1    
    48   18   29 1    
    49   19   20 1    
    50   19   30 1    
    51   19   31 1    
    52   20   21 1    
    53   20   23 1    
    54   20   53 1    
    55   21   22 1    
    56   21   54 1    
    57   21   55 1    
    58   22   56 1    
    59   22   57 1    
    60   23   58 1    
    61   24   59 1    
    62   24   60 1    
    63   24   61 1    
    64   25   62 1    
    65   25   63 1    
    66   25   64 1    
    67   26   65 1    
    68   26   66 1    
    69   26   67 1    
    70   27   68 1    
    71   27   69 1    
    72   27   70 1    
    73   29   71 1    
    74   29   72 1    
    75   29   73 1    
    76   30   74 1    
    77   30   75 1    
    78   30   76 1    
    79   31   77 1    
    80   31   78 1    
    81   31   79 1    
    82   32   33 2    
    83   32   34 1    
    84   34   80 1    
@<TRIPOS>SUBSTRUCTURE
     1 ****        1 TEMP              0 ****  ****    0 ROOT 
@<TRIPOS>NORMAL
@<TRIPOS>FF_PBC
FORCE_FIELD_SETUP_FEATURE Force Field Setup information
v1.0  0 0.000000 0.000000 0.000000 0.000000 0.000000 0.000000 NONE 0 0 0 0 1 0 0 0 0 0 0 0 0
