@<TRIPOS>MOLECULE
MOL002573
   39    41     1     1     0
SMALL
GASTEIGER


@<TRIPOS>ATOM
      1 C           2.684892    0.254915   -0.243920 C.3       1 <1>        -0.022164 
      2 C           2.776262   -1.214078    0.266833 C.3       1 <1>        -0.043038 
      3 C           1.458909   -1.932527   -0.150786 C.3       1 <1>        -0.030415 
      4 C           0.540464   -0.746676   -0.211787 C.2       1 <1>        -0.063592 
      5 C          -0.970929   -0.853802   -0.257076 C.3       1 <1>        -0.005414 
      6 C          -1.327088   -0.614526   -1.749161 C.3       1 <1>        -0.043134 
      7 C          -1.298874    0.933334   -1.917766 C.3       1 <1>        -0.048609 
      8 C          -1.007310    1.520698   -0.502705 C.3       1 <1>        -0.031374 
      9 C           0.524372    1.751073   -0.317132 C.3       1 <1>        -0.027864 
     10 C           1.194078    0.407794   -0.254705 C.2       1 <1>        -0.066640 
     11 C          -1.546609    0.412781    0.457650 C.3       1 <1>        -0.022700 
     12 C          -3.109217    0.463196    0.496059 C.3       1 <1>        -0.058761 
     13 C          -1.055787    0.565218    1.932650 C.3       1 <1>        -0.058761 
     14 C          -1.506864   -2.212571    0.271129 C.3       1 <1>        -0.055333 
     15 C           3.437641    1.264106    0.659751 C.3       1 <1>        -0.058684 
     16 H          -1.516361    2.489320   -0.359441 H         1 <1>         0.030925 
     17 H           3.041858    0.325512   -1.285216 H         1 <1>         0.034310 
     18 H           3.676866   -1.733114   -0.099000 H         1 <1>         0.027391 
     19 H           2.814080   -1.199005    1.369466 H         1 <1>         0.027391 
     20 H           1.178913   -2.703030    0.584281 H         1 <1>         0.031042 
     21 H           1.535967   -2.379251   -1.154310 H         1 <1>         0.031042 
     22 H          -2.329434   -1.010885   -1.977765 H         1 <1>         0.027383 
     23 H          -0.620390   -1.122220   -2.427130 H         1 <1>         0.027383 
     24 H          -0.544748    1.242069   -2.659265 H         1 <1>         0.026847 
     25 H          -2.275052    1.293139   -2.283926 H         1 <1>         0.026847 
     26 H           0.715603    2.297075    0.619396 H         1 <1>         0.031300 
     27 H           0.939460    2.348440   -1.143535 H         1 <1>         0.031300 
     28 H          -3.434466    1.441266    0.882434 H         1 <1>         0.023534 
     29 H          -3.515941   -0.304596    1.170166 H         1 <1>         0.023534 
     30 H          -3.581494    0.326829   -0.484860 H         1 <1>         0.023534 
     31 H          -1.329650    1.562417    2.309354 H         1 <1>         0.023534 
     32 H          -1.535976   -0.186602    2.576350 H         1 <1>         0.023534 
     33 H           0.028274    0.442432    2.058817 H         1 <1>         0.023534 
     34 H          -1.091050   -3.038177   -0.325625 H         1 <1>         0.023829 
     35 H          -2.601304   -2.271841    0.191215 H         1 <1>         0.023829 
     36 H          -1.223431   -2.353899    1.324340 H         1 <1>         0.023829 
     37 H           3.350683    2.281099    0.247501 H         1 <1>         0.023544 
     38 H           4.503698    0.994131    0.709220 H         1 <1>         0.023544 
     39 H           3.020253    1.260056    1.678497 H         1 <1>         0.023544 
@<TRIPOS>BOND
     1    1    2 1    
     2    1   10 1    
     3    1   15 1    
     4    1   17 1    
     5    2    3 1    
     6    2   18 1    
     7    2   19 1    
     8    3    4 1    
     9    3   20 1    
    10    3   21 1    
    11    4    5 1    
    12    4   10 2    
    13    5    6 1    
    14    5   11 1    
    15    5   14 1    
    16    6    7 1    
    17    6   22 1    
    18    6   23 1    
    19    7    8 1    
    20    7   24 1    
    21    7   25 1    
    22    8    9 1    
    23    8   11 1    
    24    8   16 1    
    25    9   10 1    
    26    9   26 1    
    27    9   27 1    
    28   11   12 1    
    29   11   13 1    
    30   12   28 1    
    31   12   29 1    
    32   12   30 1    
    33   13   31 1    
    34   13   32 1    
    35   13   33 1    
    36   14   34 1    
    37   14   35 1    
    38   14   36 1    
    39   15   37 1    
    40   15   38 1    
    41   15   39 1    
@<TRIPOS>SUBSTRUCTURE
     1 ****        1 TEMP              0 ****  ****    0 ROOT 
@<TRIPOS>NORMAL
@<TRIPOS>FF_PBC
FORCE_FIELD_SETUP_FEATURE Force Field Setup information
v1.0  0 0.000000 0.000000 0.000000 0.000000 0.000000 0.000000 NONE 0 0 0 0 1 0 0 0 0 0 0 0 0
