@<TRIPOS>MOLECULE
MOL002269
   73    77     1     1     0
SMALL
GASTEIGER


@<TRIPOS>ATOM
      1 C          -0.148592   -0.970570   -0.834240 C.ar      1 <1>         0.004182 
      2 C          -0.195624    0.245448   -0.214483 C.ar      1 <1>         0.058672 
      3 C           0.914859    0.597265    0.741947 C.2       1 <1>         0.198806 
      4 C           2.252074   -0.046417    0.471499 C.ar      1 <1>         0.058344 
      5 C           2.284152   -1.268938   -0.138370 C.ar      1 <1>         0.004910 
      6 C           0.946955   -1.993326   -0.463378 C.3       1 <1>         0.145812 
      7 C           3.497642    0.658535    0.861117 C.ar      1 <1>         0.084491 
      8 C           4.703381    0.082945    0.590610 C.ar      1 <1>        -0.018355 
      9 C           4.765988   -1.233004   -0.090377 C.ar      1 <1>         0.049104 
     10 C           3.614160   -1.868943   -0.433588 C.ar      1 <1>        -0.041719 
     11 C          -1.178981   -1.277145   -1.860384 C.ar      1 <1>        -0.054597 
     12 C          -2.178371   -0.410757   -2.112093 C.ar      1 <1>        -0.058922 
     13 C          -2.259191    0.871066   -1.373650 C.ar      1 <1>        -0.030847 
     14 C          -1.303818    1.197010   -0.477425 C.ar      1 <1>         0.090630 
     15 O           3.412161    1.903048    1.493231 O.3       1 <1>        -0.359092 
     16 O           0.742411    1.377438    1.663267 O.2       1 <1>        -0.286456 
     17 C           6.115110   -1.850152   -0.394004 C.2       1 <1>         0.291327 
     18 O           6.187002   -3.034296   -1.008163 O.3       1 <1>        -0.327489 
     19 O           7.133786   -1.257055   -0.072850 O.2       1 <1>        -0.259428 
     20 O           1.120729   -2.784269   -1.648257 O.3       1 <1>        -0.376541 
     21 O          -1.367058    2.411639    0.207357 O.3       1 <1>        -0.311832 
     22 C          -1.419491    5.169417    1.193467 C.3       1 <1>         0.113017 
     23 C          -1.930860    5.998541   -0.017534 C.3       1 <1>         0.111896 
     24 C          -2.226550    5.085942   -1.234593 C.3       1 <1>         0.114074 
     25 C          -0.985270    4.195376   -1.524356 C.3       1 <1>         0.134509 
     26 C          -0.491947    3.462203   -0.245281 C.3       1 <1>         0.193669 
     27 O          -0.263627    4.393760    0.825451 O.3       1 <1>        -0.340168 
     28 C           0.041082   -5.227288    0.284555 C.3       1 <1>         0.110538 
     29 C          -1.285664   -5.147245    1.086283 C.3       1 <1>         0.111722 
     30 C          -1.907641   -3.732451    0.988233 C.3       1 <1>         0.111849 
     31 C          -0.864706   -2.688156    1.466362 C.3       1 <1>         0.112938 
     32 C           0.537728   -2.868629    0.786240 C.3       1 <1>         0.124414 
     33 O           0.998651   -4.238241    0.734417 O.3       1 <1>        -0.362247 
     34 O          -3.438845    4.336304   -1.024309 O.3       1 <1>        -0.386401 
     35 C          -2.523549    4.363385    1.929735 C.3       1 <1>         0.073015 
     36 O          -3.435422    5.295076    2.546400 O.3       1 <1>        -0.392366 
     37 O          -0.921545    6.943257   -0.438789 O.3       1 <1>        -0.386488 
     38 O           0.074630    5.002063   -2.076143 O.3       1 <1>        -0.384091 
     39 C          -0.180267   -5.338946   -1.250185 C.3       1 <1>         0.072926 
     40 O          -2.415149   -3.474572   -0.333702 O.3       1 <1>        -0.386487 
     41 O           1.097675   -5.470579   -1.906005 O.3       1 <1>        -0.392367 
     42 O          -1.065867   -5.514015    2.462064 O.3       1 <1>        -0.386491 
     43 O          -0.771216   -2.890860    2.897444 O.3       1 <1>        -0.386446 
     44 H           5.625173    0.582787    0.869171 H         1 <1>         0.065115 
     45 H           3.686650   -2.829700   -0.925278 H         1 <1>         0.062922 
     46 H          -1.134008   -2.204003   -2.420939 H         1 <1>         0.062152 
     47 H          -2.929819   -0.644289   -2.860485 H         1 <1>         0.061847 
     48 H          -3.086363    1.544976   -1.555521 H         1 <1>         0.064350 
     49 H           4.240911    2.289297    1.754092 H         1 <1>         0.217340 
     50 H           7.084471   -3.319414   -1.143113 H         1 <1>         0.220555 
     51 H           1.642495   -3.567089   -1.499100 H         1 <1>         0.211195 
     52 H          -1.043402    5.879145    1.948081 H         1 <1>         0.064668 
     53 H          -2.855452    6.537830    0.253668 H         1 <1>         0.064673 
     54 H          -2.387186    5.751137   -2.102769 H         1 <1>         0.064758 
     55 H          -1.237389    3.448533   -2.292826 H         1 <1>         0.067108 
     56 H           0.505494    3.043256   -0.456405 H         1 <1>         0.094160 
     57 H           0.517567   -6.182445    0.560580 H         1 <1>         0.064579 
     58 H          -2.008414   -5.880102    0.691347 H         1 <1>         0.064670 
     59 H          -2.765981   -3.721055    1.685133 H         1 <1>         0.064674 
     60 H          -1.285753   -1.681377    1.316833 H         1 <1>         0.064714 
     61 H           1.211846   -2.505647    1.576791 H         1 <1>         0.065879 
     62 H          -3.726088    3.860344   -1.796811 H         1 <1>         0.210005 
     63 H          -3.080662    3.699964    1.253581 H         1 <1>         0.058370 
     64 H          -2.035135    3.740640    2.699387 H         1 <1>         0.058370 
     65 H          -4.127696    4.866993    3.042406 H         1 <1>         0.209508 
     66 H          -0.704536    7.588058    0.228255 H         1 <1>         0.210004 
     67 H           0.326460    5.704263   -1.479927 H         1 <1>         0.210111 
     68 H          -0.797811   -6.228149   -1.466215 H         1 <1>         0.058369 
     69 H          -0.709339   -4.461484   -1.640283 H         1 <1>         0.058369 
     70 H          -2.916298   -2.666346   -0.390441 H         1 <1>         0.210004 
     71 H           1.024033   -5.585713   -2.850118 H         1 <1>         0.209508 
     72 H          -0.480541   -4.902012    2.901842 H         1 <1>         0.210004 
     73 H          -0.267354   -2.229556    3.364544 H         1 <1>         0.210004 
@<TRIPOS>BOND
     1    1    2 2    
     2    6    1 1    
     3    1   11 1    
     4    2    3 1    
     5    2   14 1    
     6    4    3 1    
     7    3   16 2    
     8    5    4 2    
     9    4    7 1    
    10    6    5 1    
    11    5   10 1    
    12    6   20 1    
    13   32    6 1    
    14    7    8 2    
    15    7   15 1    
    16    9    8 1    
    17    8   44 1    
    18   10    9 2    
    19    9   17 1    
    20   10   45 1    
    21   11   12 2    
    22   11   46 1    
    23   12   13 1    
    24   12   47 1    
    25   14   13 2    
    26   13   48 1    
    27   14   21 1    
    28   15   49 1    
    29   17   18 1    
    30   17   19 2    
    31   18   50 1    
    32   20   51 1    
    33   21   26 1    
    34   22   23 1    
    35   27   22 1    
    36   22   35 1    
    37   22   52 1    
    38   24   23 1    
    39   23   37 1    
    40   23   53 1    
    41   25   24 1    
    42   24   34 1    
    43   24   54 1    
    44   26   25 1    
    45   25   38 1    
    46   25   55 1    
    47   26   27 1    
    48   26   56 1    
    49   29   28 1    
    50   28   33 1    
    51   28   39 1    
    52   28   57 1    
    53   30   29 1    
    54   29   42 1    
    55   29   58 1    
    56   31   30 1    
    57   30   40 1    
    58   30   59 1    
    59   31   32 1    
    60   31   43 1    
    61   31   60 1    
    62   32   33 1    
    63   32   61 1    
    64   34   62 1    
    65   35   36 1    
    66   35   63 1    
    67   35   64 1    
    68   36   65 1    
    69   37   66 1    
    70   38   67 1    
    71   39   41 1    
    72   39   68 1    
    73   39   69 1    
    74   40   70 1    
    75   41   71 1    
    76   42   72 1    
    77   43   73 1    
@<TRIPOS>SUBSTRUCTURE
     1 ****       28 TEMP              0 ****  ****    0 ROOT 
@<TRIPOS>NORMAL
@<TRIPOS>FF_PBC
FORCE_FIELD_SETUP_FEATURE Force Field Setup information
v1.0  0 0.000000 0.000000 0.000000 0.000000 0.000000 0.000000 NONE 0 0 0 0 1 0 0 0 0 0 0 0 0
