@<TRIPOS>MOLECULE
MOL002879
   66    66     1     1     0
SMALL
GASTEIGER


@<TRIPOS>ATOM
      1 C          -0.425029   -0.033052   -1.145674 C.ar      1 <1>         0.059304 
      2 C           0.025538   -0.360168    0.238707 C.ar      1 <1>         0.059304 
      3 C          -0.866002   -1.062599    1.098458 C.ar      1 <1>        -0.048115 
      4 C          -2.222159   -1.459272    0.652323 C.ar      1 <1>        -0.060980 
      5 C          -2.646880   -1.141040   -0.627961 C.ar      1 <1>        -0.060980 
      6 C          -1.737565   -0.411830   -1.542944 C.ar      1 <1>        -0.048115 
      7 C           0.381075    0.679194   -2.218265 C.2       1 <1>         0.294569 
      8 O          -0.144864    1.658384   -2.716406 O.2       1 <1>        -0.259203 
      9 O           1.589666    0.360372   -2.713062 O.3       1 <1>        -0.311416 
     10 C           1.368593   -0.029540    0.856047 C.2       1 <1>         0.294569 
     11 O           1.961531   -0.952290    1.386605 O.2       1 <1>        -0.259203 
     12 O           1.989386    1.159677    0.905901 O.3       1 <1>        -0.311416 
     13 C           1.218273    2.329367    0.586126 C.3       1 <1>         0.057392 
     14 C           0.018425    2.576831    1.545506 C.3       1 <1>        -0.028863 
     15 C          -0.571966    3.990403    1.287512 C.3       1 <1>        -0.050953 
     16 C          -1.803023    4.311192    2.177918 C.3       1 <1>        -0.052753 
     17 C          -2.334060    5.734988    1.844182 C.3       1 <1>        -0.050708 
     18 C          -3.615332    6.149577    2.629203 C.3       1 <1>        -0.046721 
     19 C          -3.353188    6.258582    4.158714 C.3       1 <1>        -0.062665 
     20 C          -4.141497    7.511864    2.089045 C.3       1 <1>        -0.062665 
     21 C           2.210506   -0.860699   -2.276854 C.3       1 <1>         0.057392 
     22 C           1.419236   -2.156444   -2.615351 C.3       1 <1>        -0.028863 
     23 C           2.093750   -3.390654   -1.955203 C.3       1 <1>        -0.050953 
     24 C           1.329568   -4.706442   -2.268306 C.3       1 <1>        -0.052753 
     25 C           1.859115   -5.938142   -1.472997 C.3       1 <1>        -0.050708 
     26 C           3.379202   -6.228598   -1.703503 C.3       1 <1>        -0.046721 
     27 C           4.251122   -5.711275   -0.518612 C.3       1 <1>        -0.062665 
     28 C           3.660942   -7.742702   -1.919647 C.3       1 <1>        -0.062665 
     29 H          -0.558635   -1.316055    2.109124 H         1 <1>         0.062548 
     30 H          -2.876361   -2.000266    1.330315 H         1 <1>         0.061779 
     31 H          -3.638646   -1.425727   -0.967423 H         1 <1>         0.061779 
     32 H          -2.089980   -0.178530   -2.540821 H         1 <1>         0.062548 
     33 H           0.904944    2.364510   -0.464802 H         1 <1>         0.056589 
     34 H           1.939675    3.150430    0.726502 H         1 <1>         0.056589 
     35 H           0.371970    2.495208    2.586531 H         1 <1>         0.028748 
     36 H          -0.770325    1.823136    1.389303 H         1 <1>         0.028748 
     37 H          -0.869826    4.055218    0.229079 H         1 <1>         0.026599 
     38 H           0.209846    4.745440    1.475146 H         1 <1>         0.026599 
     39 H          -1.500812    4.244328    3.233762 H         1 <1>         0.026538 
     40 H          -2.595399    3.569327    1.991796 H         1 <1>         0.026538 
     41 H          -2.569318    5.760498    0.767445 H         1 <1>         0.026777 
     42 H          -1.540147    6.476336    2.027860 H         1 <1>         0.026777 
     43 H          -4.404389    5.393964    2.460893 H         1 <1>         0.029548 
     44 H          -4.224617    6.695634    4.672281 H         1 <1>         0.023233 
     45 H          -3.168980    5.267219    4.598277 H         1 <1>         0.023233 
     46 H          -2.479941    6.900472    4.356807 H         1 <1>         0.023233 
     47 H          -5.057785    7.816034    2.619768 H         1 <1>         0.023233 
     48 H          -4.378894    7.439601    1.015800 H         1 <1>         0.023233 
     49 H          -3.386168    8.302758    2.223889 H         1 <1>         0.023233 
     50 H           3.163696   -0.896832   -2.828013 H         1 <1>         0.056589 
     51 H           2.475291   -0.806841   -1.215814 H         1 <1>         0.056589 
     52 H           1.372039   -2.270367   -3.710264 H         1 <1>         0.028748 
     53 H           0.387622   -2.109772   -2.243593 H         1 <1>         0.028748 
     54 H           2.100564   -3.247869   -0.861794 H         1 <1>         0.026599 
     55 H           3.135242   -3.445735   -2.311105 H         1 <1>         0.026599 
     56 H           1.388104   -4.912957   -3.350642 H         1 <1>         0.026538 
     57 H           0.265614   -4.567763   -2.008711 H         1 <1>         0.026538 
     58 H           1.251542   -6.804753   -1.785102 H         1 <1>         0.026777 
     59 H           1.660920   -5.790774   -0.397960 H         1 <1>         0.026777 
     60 H           3.703003   -5.731924   -2.633417 H         1 <1>         0.029548 
     61 H           4.069919   -4.646558   -0.310214 H         1 <1>         0.023233 
     62 H           5.323291   -5.836586   -0.748848 H         1 <1>         0.023233 
     63 H           4.023959   -6.281131    0.398075 H         1 <1>         0.023233 
     64 H           4.735583   -7.913514   -2.107304 H         1 <1>         0.023233 
     65 H           3.096735   -8.118460   -2.790482 H         1 <1>         0.023233 
     66 H           3.366486   -8.321125   -1.029849 H         1 <1>         0.023233 
@<TRIPOS>BOND
     1    1    2 1    
     2    1    6 2    
     3    1    7 1    
     4    2    3 2    
     5    2   10 1    
     6    3    4 1    
     7    3   29 1    
     8    4    5 2    
     9    4   30 1    
    10    5    6 1    
    11    5   31 1    
    12    6   32 1    
    13    7    8 2    
    14    7    9 1    
    15    9   21 1    
    16   10   11 2    
    17   10   12 1    
    18   12   13 1    
    19   13   14 1    
    20   13   33 1    
    21   13   34 1    
    22   14   15 1    
    23   14   35 1    
    24   14   36 1    
    25   15   16 1    
    26   15   37 1    
    27   15   38 1    
    28   16   17 1    
    29   16   39 1    
    30   16   40 1    
    31   17   18 1    
    32   17   41 1    
    33   17   42 1    
    34   18   19 1    
    35   18   20 1    
    36   18   43 1    
    37   19   44 1    
    38   19   45 1    
    39   19   46 1    
    40   20   47 1    
    41   20   48 1    
    42   20   49 1    
    43   21   22 1    
    44   21   50 1    
    45   21   51 1    
    46   22   23 1    
    47   22   52 1    
    48   22   53 1    
    49   23   24 1    
    50   23   54 1    
    51   23   55 1    
    52   24   25 1    
    53   24   56 1    
    54   24   57 1    
    55   25   26 1    
    56   25   58 1    
    57   25   59 1    
    58   26   27 1    
    59   26   28 1    
    60   26   60 1    
    61   27   61 1    
    62   27   62 1    
    63   27   63 1    
    64   28   64 1    
    65   28   65 1    
    66   28   66 1    
@<TRIPOS>SUBSTRUCTURE
     1 ****        1 TEMP              0 ****  ****    0 ROOT 
@<TRIPOS>NORMAL
@<TRIPOS>FF_PBC
FORCE_FIELD_SETUP_FEATURE Force Field Setup information
v1.0  0 0.000000 0.000000 0.000000 0.000000 0.000000 0.000000 NONE 0 0 0 0 1 0 0 0 0 0 0 0 0
