@<TRIPOS>MOLECULE
MOL000055
   24    23     1     1     0
SMALL
GASTEIGER


@<TRIPOS>ATOM
      1 C           3.195323    0.037049   -1.078008 C.2       1 <1>         0.276539 
      2 N           2.738456   -0.540028    1.271890 N.3       1 <1>        -0.319318 
      3 C           2.168115   -0.483069   -0.096025 C.3       1 <1>         0.091389 
      4 C           0.874668    0.385604   -0.155511 C.3       1 <1>        -0.028438 
      5 C          -0.398038   -0.411642    0.249069 C.3       1 <1>        -0.050032 
      6 C          -1.654226    0.507763    0.269118 C.3       1 <1>        -0.040588 
      7 C          -2.973147   -0.295784    0.431513 C.3       1 <1>        -0.006904 
      8 N          -4.129599    0.629483    0.439013 N.3       1 <1>        -0.329979 
      9 O           4.189221    0.653990   -0.726464 O.2       1 <1>        -0.263438 
     10 O           2.935963   -0.233375   -2.362510 O.3       1 <1>        -0.330097 
     11 H           2.002250   -0.862084    1.994374 H         1 <1>         0.118922 
     12 H           3.117916    0.432279    1.561727 H         1 <1>         0.118922 
     13 H           1.944791   -1.511198   -0.425205 H         1 <1>         0.056212 
     14 H           1.001416    1.267707    0.492976 H         1 <1>         0.028513 
     15 H           0.725084    0.749796   -1.185708 H         1 <1>         0.028513 
     16 H          -0.553031   -1.218807   -0.484386 H         1 <1>         0.026628 
     17 H          -0.264366   -0.869893    1.241108 H         1 <1>         0.026628 
     18 H          -1.569050    1.236127    1.094531 H         1 <1>         0.027743 
     19 H          -1.709548    1.068366   -0.678177 H         1 <1>         0.027743 
     20 H          -3.076198   -1.025630   -0.392115 H         1 <1>         0.042179 
     21 H          -2.946064   -0.852461    1.385456 H         1 <1>         0.042179 
     22 H          -5.052417    0.082452    0.591608 H         1 <1>         0.118213 
     23 H          -4.192385    1.174663   -0.495685 H         1 <1>         0.118213 
     24 H           3.624767    0.078592   -2.942790 H         1 <1>         0.220259 
@<TRIPOS>BOND
     1    1    3 1    
     2    1    9 2    
     3    1   10 1    
     4    3    2 1    
     5    2   11 1    
     6    2   12 1    
     7    3    4 1    
     8    3   13 1    
     9    4    5 1    
    10    4   14 1    
    11    4   15 1    
    12    5    6 1    
    13    5   16 1    
    14    5   17 1    
    15    6    7 1    
    16    6   18 1    
    17    6   19 1    
    18    7    8 1    
    19    7   20 1    
    20    7   21 1    
    21    8   22 1    
    22    8   23 1    
    23   10   24 1    
@<TRIPOS>SUBSTRUCTURE
     1 ****        1 TEMP              0 ****  ****    0 ROOT 
@<TRIPOS>NORMAL
@<TRIPOS>FF_PBC
FORCE_FIELD_SETUP_FEATURE Force Field Setup information
v1.0  0 0.000000 0.000000 0.000000 0.000000 0.000000 0.000000 NONE 0 0 0 0 1 0 0 0 0 0 0 0 0
