@<TRIPOS>MOLECULE
MOL006131
   95   102     1     1     0
SMALL
GASTEIGER


@<TRIPOS>ATOM
      1 C          -0.874057    0.974669   -3.627831 C.ar      1 <1>         0.063924 
      2 C          -0.868471   -0.047692   -2.554879 C.ar      1 <1>        -0.005424 
      3 C          -1.389069    1.380433   -0.474733 C.2       1 <1>        -0.012758 
      4 C          -0.862872   -1.444463   -2.927827 C.ar      1 <1>        -0.005467 
      5 C          -0.837631    0.323123   -1.086892 C.2       1 <1>        -0.047665 
      6 O          -1.847096   -3.586240   -2.492102 O.3       1 <1>        -0.333815 
      7 C          -0.985799   -2.588183   -1.909804 C.3       1 <1>         0.117744 
      8 O          -1.704610    0.193507    1.551777 O.3       1 <1>        -0.333834 
      9 C          -2.024477   -4.702270   -1.677740 C.ar      1 <1>         0.085209 
     10 C          -1.367583   -0.113790    2.867003 C.ar      1 <1>         0.085208 
     11 C          -1.050624    2.447063   -3.346769 C.2       1 <1>         0.218623 
     12 C          -0.956370   -5.295113   -1.141911 C.ar      1 <1>         0.014994 
     13 C          -0.112033    0.060213    3.279163 C.ar      1 <1>         0.014994 
     14 C          -1.218722    1.450216    1.036701 C.3       1 <1>         0.117201 
     15 C          -2.025859    2.964957   -2.372362 C.2       1 <1>         0.120450 
     16 C          -2.153770    2.462076   -1.134119 C.2       1 <1>        -0.022388 
     17 C           0.410132   -3.163862   -1.498833 C.3       1 <1>         0.103179 
     18 C           0.252562    1.779790    1.461751 C.3       1 <1>         0.103160 
     19 C          -0.728915    0.583469   -4.999141 C.ar      1 <1>         0.113786 
     20 C           0.995800    3.093629   -0.368231 C.2       1 <1>         0.294326 
     21 C           2.021590   -1.614325   -2.282447 C.2       1 <1>         0.294326 
     22 C           0.410614   -4.719441   -1.502712 C.3       1 <1>         0.006984 
     23 C           0.882338    0.609821    2.261525 C.3       1 <1>         0.006983 
     24 C          -0.728916   -1.824948   -4.354178 C.ar      1 <1>        -0.023068 
     25 C           0.749306    4.459938    0.236011 C.ar      1 <1>         0.051505 
     26 C           2.696247   -1.179056   -0.996511 C.ar      1 <1>         0.051505 
     27 C           0.291652    7.105561    1.317073 C.ar      1 <1>         0.132457 
     28 C           3.998949   -0.309523    1.449741 C.ar      1 <1>         0.132457 
     29 O           1.441404   -2.808366   -2.452371 O.3       1 <1>        -0.304822 
     30 O           1.116136    1.950796    0.317843 O.3       1 <1>        -0.304822 
     31 C           0.284381   -0.290137    4.665176 C.ar      1 <1>         0.080714 
     32 C          -1.114143   -6.472931   -0.254775 C.ar      1 <1>         0.080714 
     33 C          -0.642683   -0.852788   -5.356781 C.ar      1 <1>         0.103278 
     34 C           1.150397    6.205688    1.992894 C.ar      1 <1>         0.105520 
     35 C           3.712604   -1.748454    1.225060 C.ar      1 <1>         0.105520 
     36 C          -0.371649    6.690080    0.055021 C.ar      1 <1>         0.105520 
     37 C           3.648176    0.635665    0.463273 C.ar      1 <1>         0.105520 
     38 C          -2.387949   -0.655313    3.792656 C.ar      1 <1>        -0.001449 
     39 C          -3.383566   -5.226373   -1.414887 C.ar      1 <1>        -0.001449 
     40 C          -0.146698    5.411801   -0.462658 C.ar      1 <1>        -0.016369 
     41 C           1.388778    4.852477    1.429819 C.ar      1 <1>        -0.016369 
     42 C           3.094782   -2.164376    0.040489 C.ar      1 <1>        -0.016369 
     43 C           2.980753    0.185268   -0.786161 C.ar      1 <1>        -0.016369 
     44 C          -2.367084   -6.950681   -0.004815 C.ar      1 <1>        -0.001737 
     45 C          -0.651952   -0.800654    5.514891 C.ar      1 <1>        -0.001737 
     46 C          -3.552782   -6.299376   -0.620162 C.ar      1 <1>         0.077480 
     47 C          -2.050504   -0.991549    5.050238 C.ar      1 <1>         0.077480 
     48 O          -0.409782    3.237486   -4.022015 O.2       1 <1>        -0.284431 
     49 O           1.140608    3.029889   -1.576186 O.2       1 <1>        -0.259213 
     50 O           2.047226   -0.860421   -3.241360 O.2       1 <1>        -0.259213 
     51 O          -2.800965    3.992646   -2.770293 O.3       1 <1>        -0.356314 
     52 O          -0.693163    1.536903   -6.025314 O.3       1 <1>        -0.356701 
     53 O           0.058701    8.386737    1.823504 O.3       1 <1>        -0.355395 
     54 O           4.615572    0.092620    2.637604 O.3       1 <1>        -0.355395 
     55 O           1.608713   -0.093540    5.070778 O.3       1 <1>        -0.359394 
     56 O           0.022122   -7.068857    0.303590 O.3       1 <1>        -0.359394 
     57 O          -0.487089   -1.215277   -6.699959 O.3       1 <1>        -0.357252 
     58 O           1.763052    6.611209    3.181573 O.3       1 <1>        -0.357199 
     59 O           4.063683   -2.696411    2.187085 O.3       1 <1>        -0.357199 
     60 O          -1.219665    7.566929   -0.622100 O.3       1 <1>        -0.357199 
     61 O           3.933823    1.986299    0.684960 O.3       1 <1>        -0.357199 
     62 O          -3.024805   -1.515296    5.903209 O.3       1 <1>        -0.359667 
     63 O          -4.842376   -6.783742   -0.386834 O.3       1 <1>        -0.359667 
     64 H          -0.285860   -0.377220   -0.463027 H         1 <1>         0.062729 
     65 H          -1.558001   -2.243753   -1.031082 H         1 <1>         0.067808 
     66 H          -1.882622    2.212235    1.478729 H         1 <1>         0.067790 
     67 H          -2.910750    2.912434   -0.493578 H         1 <1>         0.064798 
     68 H           0.608570   -2.835693   -0.465932 H         1 <1>         0.063499 
     69 H           0.244443    2.634084    2.157583 H         1 <1>         0.063499 
     70 H           1.206209   -5.111888   -0.849212 H         1 <1>         0.034098 
     71 H           0.603916   -5.085219   -2.523551 H         1 <1>         0.034098 
     72 H           1.808846    0.945252    2.754206 H         1 <1>         0.034098 
     73 H           1.126918   -0.224454    1.588720 H         1 <1>         0.034098 
     74 H          -0.684084   -2.876268   -4.616366 H         1 <1>         0.064778 
     75 H          -3.408324   -0.785182    3.451916 H         1 <1>         0.066920 
     76 H          -4.243199   -4.744948   -1.865257 H         1 <1>         0.066920 
     77 H          -0.629696    5.122528   -1.388523 H         1 <1>         0.065181 
     78 H           2.067606    4.171221    1.931799 H         1 <1>         0.065181 
     79 H           2.922974   -3.223443   -0.111415 H         1 <1>         0.065181 
     80 H           2.710929    0.912630   -1.544019 H         1 <1>         0.065181 
     81 H          -2.507264   -7.807615    0.646089 H         1 <1>         0.066912 
     82 H          -0.383164   -1.066298    6.531979 H         1 <1>         0.066912 
     83 H          -3.429224    4.352383   -2.153276 H         1 <1>         0.217460 
     84 H          -0.346850    2.381182   -5.753727 H         1 <1>         0.217444 
     85 H           0.572623    8.554353    2.607853 H         1 <1>         0.217501 
     86 H           4.769215    1.032930    2.652958 H         1 <1>         0.217501 
     87 H           1.858274   -0.556053    5.863172 H         1 <1>         0.217327 
     88 H          -0.139755   -7.878687    0.773355 H         1 <1>         0.217327 
     89 H          -0.318200   -2.138817   -6.845444 H         1 <1>         0.217422 
     90 H           2.363180    5.967626    3.541633 H         1 <1>         0.217423 
     91 H           4.530970   -2.292828    2.913003 H         1 <1>         0.217423 
     92 H          -1.251765    8.417947   -0.195636 H         1 <1>         0.217423 
     93 H           3.736746    2.533365   -0.066924 H         1 <1>         0.217423 
     94 H          -2.677050   -1.869769    6.714788 H         1 <1>         0.217316 
     95 H          -4.860485   -7.632446    0.042372 H         1 <1>         0.217316 
@<TRIPOS>BOND
     1    2    1 1    
     2    1   11 1    
     3    1   19 2    
     4    4    2 2    
     5    2    5 1    
     6    5    3 2    
     7    3   14 1    
     8    3   16 1    
     9    7    4 1    
    10    4   24 1    
    11    5   64 1    
    12    7    6 1    
    13    6    9 1    
    14   17    7 1    
    15    7   65 1    
    16    8   10 1    
    17   14    8 1    
    18   12    9 2    
    19    9   39 1    
    20   10   13 2    
    21   10   38 1    
    22   11   15 1    
    23   11   48 2    
    24   22   12 1    
    25   12   32 1    
    26   23   13 1    
    27   13   31 1    
    28   14   18 1    
    29   14   66 1    
    30   16   15 2    
    31   15   51 1    
    32   16   67 1    
    33   17   22 1    
    34   29   17 1    
    35   17   68 1    
    36   18   23 1    
    37   18   30 1    
    38   18   69 1    
    39   33   19 1    
    40   19   52 1    
    41   20   25 1    
    42   30   20 1    
    43   20   49 2    
    44   26   21 1    
    45   21   29 1    
    46   21   50 2    
    47   22   70 1    
    48   22   71 1    
    49   23   72 1    
    50   23   73 1    
    51   24   33 2    
    52   24   74 1    
    53   25   40 1    
    54   25   41 2    
    55   42   26 1    
    56   26   43 2    
    57   34   27 2    
    58   27   36 1    
    59   27   53 1    
    60   35   28 1    
    61   28   37 2    
    62   28   54 1    
    63   31   45 2    
    64   31   55 1    
    65   32   44 2    
    66   32   56 1    
    67   33   57 1    
    68   41   34 1    
    69   34   58 1    
    70   35   42 2    
    71   35   59 1    
    72   36   40 2    
    73   36   60 1    
    74   37   43 1    
    75   37   61 1    
    76   38   47 2    
    77   38   75 1    
    78   39   46 2    
    79   39   76 1    
    80   40   77 1    
    81   41   78 1    
    82   42   79 1    
    83   43   80 1    
    84   44   46 1    
    85   44   81 1    
    86   45   47 1    
    87   45   82 1    
    88   46   63 1    
    89   47   62 1    
    90   51   83 1    
    91   52   84 1    
    92   53   85 1    
    93   54   86 1    
    94   55   87 1    
    95   56   88 1    
    96   57   89 1    
    97   58   90 1    
    98   59   91 1    
    99   60   92 1    
   100   61   93 1    
   101   62   94 1    
   102   63   95 1    
@<TRIPOS>SUBSTRUCTURE
     1 ****       28 TEMP              0 ****  ****    0 ROOT 
@<TRIPOS>NORMAL
@<TRIPOS>FF_PBC
FORCE_FIELD_SETUP_FEATURE Force Field Setup information
v1.0  0 0.000000 0.000000 0.000000 0.000000 0.000000 0.000000 NONE 0 0 0 0 1 0 0 0 0 0 0 0 0
