@<TRIPOS>MOLECULE
MOL002252
   59    64     1     1     0
SMALL
GASTEIGER


@<TRIPOS>ATOM
      1 C          -1.757479    2.348286    0.581740 C.ar      1 <1>         0.055780 
      2 C          -1.407071    0.968244    1.000165 C.ar      1 <1>        -0.025769 
      3 C          -0.003903    0.410954    0.716028 C.3       1 <1>         0.021576 
      4 C           1.088242    1.490774    0.716961 C.ar      1 <1>        -0.025521 
      5 C           0.767703    2.873729    0.290866 C.ar      1 <1>         0.055797 
      6 C          -0.672061    3.224818    0.001755 C.2       1 <1>         0.198626 
      7 C          -0.017392   -0.279495   -0.679875 C.3       1 <1>         0.021577 
      8 C           1.422873   -0.654559   -1.061562 C.ar      1 <1>        -0.025769 
      9 C           1.973753   -1.983290   -0.700587 C.ar      1 <1>         0.055780 
     10 C           1.049672   -2.999078   -0.071178 C.2       1 <1>         0.198626 
     11 C          -0.440784   -2.822377   -0.240145 C.ar      1 <1>         0.055799 
     12 C          -0.965379   -1.486152   -0.612294 C.ar      1 <1>        -0.025441 
     13 C          -3.042153    2.813041    0.741766 C.ar      1 <1>         0.083665 
     14 C          -4.063453    1.937942    1.373551 C.ar      1 <1>        -0.031220 
     15 C          -3.730215    0.704807    1.803758 C.ar      1 <1>        -0.059013 
     16 C          -2.350769    0.197199    1.617231 C.ar      1 <1>        -0.057128 
     17 C           2.221030    0.244205   -1.715810 C.ar      1 <1>        -0.057128 
     18 C           3.638562   -0.077278   -2.000323 C.ar      1 <1>        -0.059013 
     19 C           4.152462   -1.263980   -1.626380 C.ar      1 <1>        -0.031220 
     20 C           3.294836   -2.275301   -0.955635 C.ar      1 <1>         0.083665 
     21 C           2.368312    1.178865    1.077933 C.ar      1 <1>        -0.054207 
     22 C           3.451579    2.186619    0.985130 C.ar      1 <1>        -0.047703 
     23 C           3.166864    3.436229    0.541199 C.ar      1 <1>        -0.028304 
     24 C           1.781502    3.814773    0.177831 C.ar      1 <1>         0.083914 
     25 C          -1.315881   -3.885599   -0.068473 C.ar      1 <1>         0.083995 
     26 C          -2.762695   -3.681555   -0.311505 C.ar      1 <1>        -0.025865 
     27 C          -3.238589   -2.472570   -0.705547 C.ar      1 <1>        -0.019442 
     28 C          -2.298080   -1.336600   -0.867255 C.ar      1 <1>        -0.051767 
     29 O          -0.921613    4.216633   -0.665344 O.2       1 <1>        -0.286459 
     30 O           1.470529   -3.966976    0.542316 O.2       1 <1>        -0.286459 
     31 O          -0.870422   -5.155994    0.313081 O.3       1 <1>        -0.359104 
     32 O           1.532110    5.121361   -0.255385 O.3       1 <1>        -0.359105 
     33 O          -3.369968    4.105801    0.328149 O.3       1 <1>        -0.359114 
     34 O           3.811716   -3.522388   -0.599385 O.3       1 <1>        -0.359114 
     35 C           4.872821    1.774780    1.384699 C.3       1 <1>        -0.039620 
     36 C          -4.728694   -2.232311   -0.979779 C.3       1 <1>         0.069320 
     37 O          -5.519175   -3.417295   -0.771271 O.3       1 <1>        -0.390415 
     38 H           0.247173   -0.332886    1.490158 H         1 <1>         0.040672 
     39 H          -0.396603    0.427997   -1.435369 H         1 <1>         0.040672 
     40 H          -5.081422    2.293260    1.498265 H         1 <1>         0.064340 
     41 H          -4.472873    0.072460    2.281818 H         1 <1>         0.061846 
     42 H          -2.109136   -0.803882    1.960608 H         1 <1>         0.062069 
     43 H           1.833510    1.212440   -2.016730 H         1 <1>         0.062069 
     44 H           4.261393    0.655618   -2.504614 H         1 <1>         0.061846 
     45 H           5.196895   -1.482136   -1.823922 H         1 <1>         0.064340 
     46 H           2.614148    0.177354    1.416195 H         1 <1>         0.062331 
     47 H           3.948132    4.182197    0.449658 H         1 <1>         0.064604 
     48 H          -3.429515   -4.524429   -0.171977 H         1 <1>         0.064686 
     49 H          -2.690622   -0.371829   -1.173110 H         1 <1>         0.062412 
     50 H           0.045918   -5.193410    0.572967 H         1 <1>         0.217340 
     51 H           0.652145    5.264312   -0.592724 H         1 <1>         0.217340 
     52 H          -4.286159    4.328621    0.443779 H         1 <1>         0.217340 
     53 H           4.733992   -3.631314   -0.799186 H         1 <1>         0.217340 
     54 H           5.543708    2.641318    1.484978 H         1 <1>         0.027754 
     55 H           4.842906    1.242422    2.347378 H         1 <1>         0.027754 
     56 H           5.273648    1.098794    0.614383 H         1 <1>         0.027754 
     57 H          -5.066871   -1.429622   -0.303107 H         1 <1>         0.060711 
     58 H          -4.827560   -1.888762   -2.023009 H         1 <1>         0.060711 
     59 H          -6.447694   -3.282788   -0.938166 H         1 <1>         0.209847 
@<TRIPOS>BOND
     1    1    2 1    
     2    1    6 1    
     3    1   13 2    
     4    2    3 1    
     5    2   16 2    
     6    3    4 1    
     7    3    7 1    
     8    3   38 1    
     9    4    5 1    
    10    4   21 2    
    11    5    6 1    
    12    5   24 2    
    13    6   29 2    
    14    7    8 1    
    15    7   12 1    
    16    7   39 1    
    17    8    9 1    
    18    8   17 2    
    19    9   10 1    
    20    9   20 2    
    21   10   11 1    
    22   10   30 2    
    23   11   12 1    
    24   11   25 2    
    25   12   28 2    
    26   13   14 1    
    27   13   33 1    
    28   14   15 2    
    29   14   40 1    
    30   15   16 1    
    31   15   41 1    
    32   16   42 1    
    33   17   18 1    
    34   17   43 1    
    35   18   19 2    
    36   18   44 1    
    37   19   20 1    
    38   19   45 1    
    39   20   34 1    
    40   21   22 1    
    41   21   46 1    
    42   22   23 2    
    43   22   35 1    
    44   23   24 1    
    45   23   47 1    
    46   24   32 1    
    47   25   26 1    
    48   25   31 1    
    49   26   27 2    
    50   26   48 1    
    51   27   28 1    
    52   27   36 1    
    53   28   49 1    
    54   31   50 1    
    55   32   51 1    
    56   33   52 1    
    57   34   53 1    
    58   35   54 1    
    59   35   55 1    
    60   35   56 1    
    61   36   37 1    
    62   36   57 1    
    63   36   58 1    
    64   37   59 1    
@<TRIPOS>SUBSTRUCTURE
     1 ****        1 TEMP              0 ****  ****    0 ROOT 
@<TRIPOS>NORMAL
@<TRIPOS>FF_PBC
FORCE_FIELD_SETUP_FEATURE Force Field Setup information
v1.0  0 0.000000 0.000000 0.000000 0.000000 0.000000 0.000000 NONE 0 0 0 0 1 0 0 0 0 0 0 0 0
