@<TRIPOS>MOLECULE
MOL004615
   65    68     1     1     0
SMALL
GASTEIGER


@<TRIPOS>ATOM
      1 C          -1.144416    3.847386   -2.886991 C.ar      1 <1>         0.102475 
      2 C           0.175588    3.931777   -2.219654 C.ar      1 <1>        -0.028660 
      3 C           0.255269    4.157000   -0.880092 C.ar      1 <1>        -0.046282 
      4 C          -0.980215    4.306167   -0.070714 C.ar      1 <1>         0.049080 
      5 C          -2.203605    4.252154   -0.683726 C.ar      1 <1>        -0.016288 
      6 C          -2.292347    4.011992   -2.142967 C.ar      1 <1>         0.106143 
      7 O          -3.538229    3.944978   -2.767440 O.3       1 <1>        -0.345328 
      8 C          -0.900882    4.524283    1.425152 C.2       1 <1>         0.294166 
      9 O          -1.206306    3.605897   -4.261517 O.3       1 <1>        -0.357268 
     10 C          -4.170960    5.222080   -2.950318 C.3       1 <1>         0.043136 
     11 O          -1.277844    5.598214    1.862400 O.2       1 <1>        -0.259215 
     12 O          -0.451682    3.610756    2.300907 O.3       1 <1>        -0.307417 
     13 C          -0.212357    2.293337    1.762461 C.3       1 <1>         0.077778 
     14 C          -1.496570    1.593703    1.229673 C.3       1 <1>         0.003721 
     15 C          -1.672049    0.308973    2.081101 C.3       1 <1>         0.073738 
     16 C          -0.239981   -0.031573    2.572168 C.3       1 <1>         0.047869 
     17 C           0.308445    1.371748    2.895856 C.3       1 <1>         0.016252 
     18 C           0.687752   -0.687855    1.523855 C.3       1 <1>         0.173265 
     19 O           2.027286   -0.801081    2.040202 O.3       1 <1>        -0.322644 
     20 C           2.555633    0.307567    2.584724 C.2       1 <1>         0.039554 
     21 C           1.810906    1.349339    2.980436 C.2       1 <1>        -0.055133 
     22 O          -2.471338    0.675219    3.222303 O.3       1 <1>        -0.388295 
     23 C          -2.401472   -0.823962    1.309363 C.3       1 <1>        -0.035545 
     24 H          -0.117926    1.701534    3.859002 H         1 <1>         0.037413 
     25 H          -0.247807   -0.685244    3.459882 H         1 <1>         0.038435 
     26 O           0.184726   -2.011824    1.261135 O.3       1 <1>        -0.319340 
     27 C           0.879373   -2.717455    0.214925 C.3       1 <1>         0.190790 
     28 O           2.254699   -2.924005    0.587425 O.3       1 <1>        -0.340431 
     29 C           3.025334   -3.680711   -0.369890 C.3       1 <1>         0.113007 
     30 C           2.384449   -5.077036   -0.613840 C.3       1 <1>         0.111896 
     31 C           0.885023   -4.946178   -0.994555 C.3       1 <1>         0.114063 
     32 C           0.160419   -4.083955    0.067662 C.3       1 <1>         0.134212 
     33 C           3.325487   -2.865074   -1.658888 C.3       1 <1>         0.073015 
     34 O           0.258880   -6.238268   -1.105318 O.3       1 <1>        -0.386401 
     35 O           3.102435   -5.793374   -1.635145 O.3       1 <1>        -0.386488 
     36 O           0.168671   -4.808367    1.314329 O.3       1 <1>        -0.384103 
     37 O           4.433555   -3.450566   -2.369138 O.3       1 <1>        -0.392366 
     38 H           1.076729    3.816726   -2.813061 H         1 <1>         0.064423 
     39 H           1.226566    4.234137   -0.401011 H         1 <1>         0.062608 
     40 H          -3.113119    4.375458   -0.105836 H         1 <1>         0.065186 
     41 H          -2.104417    3.527775   -4.569359 H         1 <1>         0.217422 
     42 H          -5.131188    5.060750   -3.462034 H         1 <1>         0.052871 
     43 H          -3.544422    5.878563   -3.574439 H         1 <1>         0.052871 
     44 H          -4.365734    5.714804   -1.985241 H         1 <1>         0.052871 
     45 H           0.566042    2.324039    0.983216 H         1 <1>         0.060896 
     46 H          -1.374015    1.349515    0.161855 H         1 <1>         0.031827 
     47 H          -2.391544    2.226204    1.333841 H         1 <1>         0.031827 
     48 H           0.705728   -0.090920    0.598393 H         1 <1>         0.091840 
     49 H           3.638528    0.328627    2.713023 H         1 <1>         0.088268 
     50 H           2.305007    2.229577    3.394563 H         1 <1>         0.059523 
     51 H          -2.619405   -0.042621    3.829531 H         1 <1>         0.210163 
     52 H          -3.435254   -0.509712    1.100124 H         1 <1>         0.025733 
     53 H          -2.427839   -1.740768    1.917597 H         1 <1>         0.025733 
     54 H          -1.911621   -1.047771    0.350384 H         1 <1>         0.025733 
     55 H           0.787607   -2.147294   -0.723451 H         1 <1>         0.093840 
     56 H           4.007343   -3.841990    0.105634 H         1 <1>         0.064668 
     57 H           2.446279   -5.634611    0.337886 H         1 <1>         0.064673 
     58 H           0.799766   -4.478924   -1.987304 H         1 <1>         0.064758 
     59 H          -0.884734   -3.920511   -0.248959 H         1 <1>         0.067096 
     60 H           3.595835   -1.840123   -1.351640 H         1 <1>         0.058370 
     61 H           2.448643   -2.808916   -2.320525 H         1 <1>         0.058370 
     62 H           0.232387   -6.691858   -0.267493 H         1 <1>         0.210005 
     63 H           2.729566   -6.653596   -1.804654 H         1 <1>         0.210004 
     64 H          -0.201939   -4.287950    2.021918 H         1 <1>         0.210110 
     65 H           4.672161   -2.978083   -3.161325 H         1 <1>         0.209508 
@<TRIPOS>BOND
     1    1    2 1    
     2    1    6 2    
     3    1    9 1    
     4    2    3 2    
     5    2   38 1    
     6    3    4 1    
     7    3   39 1    
     8    4    5 2    
     9    4    8 1    
    10    5    6 1    
    11    5   40 1    
    12    6    7 1    
    13    7   10 1    
    14    8   11 2    
    15    8   12 1    
    16    9   41 1    
    17   10   42 1    
    18   10   43 1    
    19   10   44 1    
    20   12   13 1    
    21   13   14 1    
    22   13   17 1    
    23   13   45 1    
    24   14   15 1    
    25   14   46 1    
    26   14   47 1    
    27   15   16 1    
    28   15   22 1    
    29   15   23 1    
    30   16   17 1    
    31   16   18 1    
    32   16   25 1    
    33   17   21 1    
    34   17   24 1    
    35   18   19 1    
    36   18   26 1    
    37   18   48 1    
    38   19   20 1    
    39   20   21 2    
    40   20   49 1    
    41   21   50 1    
    42   22   51 1    
    43   23   52 1    
    44   23   53 1    
    45   23   54 1    
    46   26   27 1    
    47   27   28 1    
    48   27   32 1    
    49   27   55 1    
    50   28   29 1    
    51   29   30 1    
    52   29   33 1    
    53   29   56 1    
    54   30   31 1    
    55   30   35 1    
    56   30   57 1    
    57   31   32 1    
    58   31   34 1    
    59   31   58 1    
    60   32   36 1    
    61   32   59 1    
    62   33   37 1    
    63   33   60 1    
    64   33   61 1    
    65   34   62 1    
    66   35   63 1    
    67   36   64 1    
    68   37   65 1    
@<TRIPOS>SUBSTRUCTURE
     1 ****        1 TEMP              0 ****  ****    0 ROOT 
@<TRIPOS>NORMAL
@<TRIPOS>FF_PBC
FORCE_FIELD_SETUP_FEATURE Force Field Setup information
v1.0  0 0.000000 0.000000 0.000000 0.000000 0.000000 0.000000 NONE 0 0 0 0 1 0 0 0 0 0 0 0 0
