@<TRIPOS>MOLECULE
MOL002236
   85    89     1     1     0
SMALL
GASTEIGER


@<TRIPOS>ATOM
      1 C           2.083945   -6.105370    3.795683 C.ar      1 <1>        -0.016357 
      2 C           2.934033   -7.333235    3.853675 C.ar      1 <1>         0.105520 
      3 C           2.291499   -8.669534    3.896309 C.ar      1 <1>         0.132457 
      4 C           0.787367   -8.777177    3.879163 C.ar      1 <1>         0.105520 
      5 C          -0.038060   -7.544096    3.806175 C.ar      1 <1>        -0.016357 
      6 C           0.605698   -6.210526    3.761581 C.ar      1 <1>         0.051876 
      7 O           4.323692   -7.208318    3.863966 O.3       1 <1>        -0.357199 
      8 O           3.088149   -9.815291    3.951974 O.3       1 <1>        -0.355395 
      9 O           0.198830  -10.043537    3.930849 O.3       1 <1>        -0.357199 
     10 C          -0.234777   -4.956017    3.666033 C.2       1 <1>         0.299009 
     11 O           0.341649   -3.777686    3.917794 O.3       1 <1>        -0.271238 
     12 O          -1.408215   -5.042501    3.340684 O.2       1 <1>        -0.258823 
     13 C          -0.429476   -2.646690    3.653639 C.ar      1 <1>         0.119349 
     14 C          -1.655779   -2.352470    4.434861 C.ar      1 <1>         0.133347 
     15 C          -2.452600   -1.112408    4.073633 C.ar      1 <1>         0.105546 
     16 C          -1.967770   -0.254395    2.963544 C.ar      1 <1>        -0.016369 
     17 C          -0.814783   -0.587548    2.287331 C.ar      1 <1>         0.051530 
     18 C          -0.037829   -1.799245    2.653957 C.ar      1 <1>        -0.015483 
     19 C          -0.319073    0.268005    1.142134 C.2       1 <1>         0.294386 
     20 O          -1.088675    1.265627    0.677168 O.3       1 <1>        -0.302869 
     21 O           0.763061   -0.002008    0.645838 O.2       1 <1>        -0.259212 
     22 O          -3.615867   -0.803156    4.784337 O.3       1 <1>        -0.357199 
     23 O          -2.061918   -3.190952    5.475093 O.3       1 <1>        -0.355377 
     24 C          -0.504140    2.038511   -0.395515 C.3       1 <1>         0.121798 
     25 C          -1.670973    2.707024   -1.167502 C.3       1 <1>         0.100590 
     26 C          -2.351830    3.772045   -0.267061 C.3       1 <1>         0.014948 
     27 C          -1.366083    4.839876    0.280029 C.3       1 <1>         0.155133 
     28 C          -0.198730    4.120444    1.010943 C.3       1 <1>         0.014948 
     29 C           0.518799    3.106247    0.086190 C.3       1 <1>         0.100590 
     30 O           1.565087    2.478131    0.858601 O.3       1 <1>        -0.305300 
     31 H           0.892140    3.681993   -0.770789 H         1 <1>         0.063015 
     32 H           0.019528    1.396877   -1.109353 H         1 <1>         0.065460 
     33 O          -1.108233    3.319167   -2.343760 O.3       1 <1>        -0.305300 
     34 C          -0.881275    5.764282   -0.823860 C.2       1 <1>         0.291720 
     35 C           2.792632    2.363194    0.312132 C.2       1 <1>         0.294309 
     36 O           3.630080    1.782214    0.981398 O.2       1 <1>        -0.259213 
     37 C           3.268220    2.922949   -1.014859 C.ar      1 <1>         0.051504 
     38 O          -1.844033    6.334564   -1.553122 O.3       1 <1>        -0.329104 
     39 O           0.301206    5.988319   -1.034348 O.2       1 <1>        -0.261963 
     40 H          -2.463659    1.976457   -1.402724 H         1 <1>         0.063015 
     41 O          -2.045304    5.628510    1.278540 O.3       1 <1>        -0.378361 
     42 C           4.430267    3.844160   -0.983718 C.ar      1 <1>        -0.016369 
     43 C           4.931383    4.419049   -2.159404 C.ar      1 <1>         0.105520 
     44 C           4.289397    4.119425   -3.463540 C.ar      1 <1>         0.132457 
     45 C           3.181635    3.238174   -3.515272 C.ar      1 <1>         0.105520 
     46 C           2.681390    2.606032   -2.269697 C.ar      1 <1>        -0.016369 
     47 O           4.784140    4.717066   -4.626621 O.3       1 <1>        -0.355395 
     48 O           2.571862    2.976362   -4.743460 O.3       1 <1>        -0.357199 
     49 O           6.032054    5.274446   -2.090432 O.3       1 <1>        -0.357199 
     50 C          -0.975070    2.542146   -3.437698 C.2       1 <1>         0.294309 
     51 C          -1.807258    1.322989   -3.793259 C.ar      1 <1>         0.051504 
     52 O          -0.137030    2.889729   -4.252880 O.2       1 <1>        -0.259213 
     53 C          -2.663672    1.446960   -4.913065 C.ar      1 <1>        -0.016369 
     54 C          -3.528245    0.325617   -5.348408 C.ar      1 <1>         0.105520 
     55 C          -3.507720   -0.894149   -4.639136 C.ar      1 <1>         0.132457 
     56 C          -2.610164   -1.050441   -3.468271 C.ar      1 <1>         0.105520 
     57 C          -1.779875    0.023693   -3.068516 C.ar      1 <1>        -0.016369 
     58 O          -4.358056    0.490801   -6.459719 O.3       1 <1>        -0.357199 
     59 O          -4.331040   -1.945906   -5.049274 O.3       1 <1>        -0.355395 
     60 O          -2.602753   -2.271117   -2.783328 O.3       1 <1>        -0.357199 
     61 H           2.565362   -5.134624    3.770557 H         1 <1>         0.065181 
     62 H          -1.119618   -7.614143    3.782915 H         1 <1>         0.065181 
     63 H           4.748400   -8.060484    3.873422 H         1 <1>         0.217423 
     64 H           2.556482  -10.605028    3.948880 H         1 <1>         0.217501 
     65 H          -0.750757  -10.024688    3.961631 H         1 <1>         0.217423 
     66 H          -2.525292    0.634134    2.686419 H         1 <1>         0.065181 
     67 H           0.871371   -2.034660    2.112170 H         1 <1>         0.065206 
     68 H          -4.053731   -0.017360    4.477047 H         1 <1>         0.217423 
     69 H          -2.886506   -2.894867    5.846296 H         1 <1>         0.217502 
     70 H          -3.159558    4.261113   -0.834088 H         1 <1>         0.032408 
     71 H          -2.814252    3.265159    0.596098 H         1 <1>         0.032408 
     72 H           0.526497    4.866955    1.373702 H         1 <1>         0.032408 
     73 H          -0.590005    3.582411    1.889383 H         1 <1>         0.032408 
     74 H          -1.489366    6.897938   -2.232664 H         1 <1>         0.220301 
     75 H          -2.784969    6.114967    0.926087 H         1 <1>         0.210848 
     76 H           4.906894    4.079105   -0.038333 H         1 <1>         0.065181 
     77 H           1.869454    1.898281   -2.335644 H         1 <1>         0.065181 
     78 H           4.292160    4.448975   -5.397059 H         1 <1>         0.217501 
     79 H           1.636446    2.811982   -4.658299 H         1 <1>         0.217423 
     80 H           6.277668    5.594007   -2.953212 H         1 <1>         0.217423 
     81 H          -2.698260    2.378054   -5.468570 H         1 <1>         0.065181 
     82 H          -1.121982   -0.128140   -2.227780 H         1 <1>         0.065181 
     83 H          -4.853290   -0.299813   -6.654448 H         1 <1>         0.217423 
     84 H          -4.215640   -2.711527   -4.494572 H         1 <1>         0.217501 
     85 H          -1.997988   -2.320257   -2.051104 H         1 <1>         0.217423 
@<TRIPOS>BOND
     1    1    2 2    
     2    1    6 1    
     3    1   61 1    
     4    2    3 1    
     5    2    7 1    
     6    3    4 2    
     7    3    8 1    
     8    4    5 1    
     9    4    9 1    
    10    5    6 2    
    11    5   62 1    
    12    6   10 1    
    13    7   63 1    
    14    8   64 1    
    15    9   65 1    
    16   10   11 1    
    17   10   12 2    
    18   11   13 1    
    19   13   14 1    
    20   13   18 2    
    21   14   15 2    
    22   14   23 1    
    23   15   16 1    
    24   15   22 1    
    25   16   17 2    
    26   16   66 1    
    27   17   18 1    
    28   17   19 1    
    29   18   67 1    
    30   19   20 1    
    31   19   21 2    
    32   20   24 1    
    33   22   68 1    
    34   23   69 1    
    35   24   25 1    
    36   24   29 1    
    37   24   32 1    
    38   25   26 1    
    39   25   33 1    
    40   25   40 1    
    41   26   27 1    
    42   26   70 1    
    43   26   71 1    
    44   27   28 1    
    45   27   34 1    
    46   27   41 1    
    47   28   29 1    
    48   28   72 1    
    49   28   73 1    
    50   29   30 1    
    51   29   31 1    
    52   30   35 1    
    53   33   50 1    
    54   34   38 1    
    55   34   39 2    
    56   35   36 2    
    57   35   37 1    
    58   37   42 1    
    59   37   46 2    
    60   38   74 1    
    61   41   75 1    
    62   42   43 2    
    63   42   76 1    
    64   43   44 1    
    65   43   49 1    
    66   44   45 2    
    67   44   47 1    
    68   45   46 1    
    69   45   48 1    
    70   46   77 1    
    71   47   78 1    
    72   48   79 1    
    73   49   80 1    
    74   50   51 1    
    75   50   52 2    
    76   51   53 2    
    77   51   57 1    
    78   53   54 1    
    79   53   81 1    
    80   54   55 2    
    81   54   58 1    
    82   55   56 1    
    83   55   59 1    
    84   56   57 2    
    85   56   60 1    
    86   57   82 1    
    87   58   83 1    
    88   59   84 1    
    89   60   85 1    
@<TRIPOS>SUBSTRUCTURE
     1 ****        1 TEMP              0 ****  ****    0 ROOT 
@<TRIPOS>NORMAL
@<TRIPOS>FF_PBC
FORCE_FIELD_SETUP_FEATURE Force Field Setup information
v1.0  0 0.000000 0.000000 0.000000 0.000000 0.000000 0.000000 NONE 0 0 0 0 1 0 0 0 0 0 0 0 0
