@<TRIPOS>MOLECULE
MOL006942
   18    18     1     1     0
SMALL
GASTEIGER


@<TRIPOS>ATOM
      1 O           0.573561    2.637716   -0.001675 O.2       1 <1>        -0.067472 
      2 N          -0.776718    2.153006   -0.001513 N.ar      1 <1>         0.182062 
      3 C          -0.805337    0.820645   -0.000019 C.ar      1 <1>         0.233777 
      4 C           0.585445    0.335795    0.001007 C.ar      1 <1>         0.090305 
      5 C           1.335163    1.465429   -0.000100 C.ar      1 <1>         0.379024 
      6 C           2.864003    1.472013    0.000347 C.3       1 <1>         0.056389 
      7 N          -2.022648    0.076321    0.000510 N.am      1 <1>        -0.263709 
      8 C          -2.182875   -1.273045    0.000388 C.2       1 <1>         0.215349 
      9 O          -3.318867   -1.719103    0.000990 O.2       1 <1>        -0.275736 
     10 C          -1.084755   -2.304324   -0.000413 C.3       1 <1>         0.012517 
     11 H           0.984783   -0.666454    0.002370 H         1 <1>         0.074681 
     12 H           3.231364    2.509246    0.000091 H         1 <1>         0.036528 
     13 H           3.237772    0.957836    0.898554 H         1 <1>         0.036528 
     14 H           3.238234    0.957230   -0.897327 H         1 <1>         0.036528 
     15 H          -2.874702    0.606629    0.000871 H         1 <1>         0.156457 
     16 H          -1.514457   -3.318640   -0.001607 H         1 <1>         0.032257 
     17 H          -0.473717   -2.209927   -0.909249 H         1 <1>         0.032257 
     18 H          -0.474339   -2.211821    0.909036 H         1 <1>         0.032257 
@<TRIPOS>BOND
     1    1    2 1    
     2    1    5 1    
     3    2    3 2    
     4    3    4 1    
     5    3    7 1    
     6    4    5 2    
     7    4   11 1    
     8    5    6 1    
     9    6   12 1    
    10    6   13 1    
    11    6   14 1    
    12    7    8 1    
    13    7   15 1    
    14    8    9 2    
    15    8   10 1    
    16   10   16 1    
    17   10   17 1    
    18   10   18 1    
@<TRIPOS>SUBSTRUCTURE
     1 ****        1 TEMP              0 ****  ****    0 ROOT 
@<TRIPOS>NORMAL
@<TRIPOS>FF_PBC
FORCE_FIELD_SETUP_FEATURE Force Field Setup information
v1.0  0 0.000000 0.000000 0.000000 0.000000 0.000000 0.000000 NONE 0 0 0 0 1 0 0 0 0 0 0 0 0
