@<TRIPOS>MOLECULE
MOL013330
   66    71     1     1     0
SMALL
GASTEIGER


@<TRIPOS>ATOM
      1 C           2.110874    0.303339    0.056945 C.3       1 <1>         0.126121 
      2 C           0.823323   -0.588166    0.192033 C.3       1 <1>         0.062036 
      3 C           3.527528   -0.391073   -0.111703 C.3       1 <1>         0.174500 
      4 C           2.086896    1.727045   -0.550414 C.3       1 <1>         0.032072 
      5 O           3.044714    0.147444    1.096527 O.3       1 <1>        -0.352477 
      6 C          -0.450862    0.317352    0.033498 C.3       1 <1>        -0.018023 
      7 C           0.739918   -1.557721   -0.947124 C.2       1 <1>         0.142703 
      8 C           0.953396   -1.402781    1.525467 C.3       1 <1>        -0.049756 
      9 C           4.645259    0.418406   -0.726657 C.2       1 <1>         0.294796 
     10 C           3.456052    2.424518   -0.225763 C.3       1 <1>         0.109557 
     11 C           0.863948    2.509720    0.042783 C.3       1 <1>        -0.041851 
     12 C           2.007933    1.627408   -2.112042 C.3       1 <1>        -0.054077 
     13 C          -1.897043   -0.349550    0.048538 C.3       1 <1>         0.003987 
     14 C          -0.143364    1.620447    0.839882 C.3       1 <1>        -0.047965 
     15 C          -0.469635   -2.447187   -0.971023 C.3       1 <1>         0.012510 
     16 O           1.606518   -1.611933   -1.805809 O.2       1 <1>        -0.296707 
     17 O           4.582927    1.760027   -0.834245 O.3       1 <1>        -0.304178 
     18 O           5.635684   -0.154363   -1.146698 O.2       1 <1>        -0.261946 
     19 C           3.800870    2.711097    1.248867 C.ar      1 <1>         0.086373 
     20 C          -1.832278   -1.682016   -0.846607 C.3       1 <1>         0.002895 
     21 C          -2.940253    0.678327   -0.604178 C.3       1 <1>         0.070199 
     22 C          -2.366937   -0.539239    1.526167 C.3       1 <1>        -0.056555 
     23 C           3.369495    3.848949    2.078385 C.ar      1 <1>         0.048517 
     24 C           4.627654    1.984024    2.089991 C.ar      1 <1>         0.326709 
     25 C          -3.013026   -2.730398   -0.744747 C.3       1 <1>         0.077087 
     26 C          -4.438876    0.260234   -0.704538 C.3       1 <1>         0.059705 
     27 O          -2.974796    1.941151    0.085294 O.3       1 <1>        -0.390727 
     28 C           3.937411    3.661223    3.305173 C.ar      1 <1>         0.321428 
     29 O           4.715934    2.516065    3.376091 O.2       1 <1>        -0.220612 
     30 O          -4.238137   -2.051172   -0.443012 O.3       1 <1>        -0.308747 
     31 C          -3.178328   -3.573660   -2.052332 C.3       1 <1>        -0.035197 
     32 C          -2.884034   -3.743463    0.436814 C.3       1 <1>        -0.035197 
     33 C          -4.528215   -1.094539   -1.312225 C.2       1 <1>         0.265157 
     34 O          -4.807749   -1.282545   -2.485348 O.2       1 <1>        -0.264862 
     35 H           3.586366   -1.489553   -0.116181 H         1 <1>         0.073137 
     36 H          -0.437451    0.649696   -1.008001 H         1 <1>         0.031720 
     37 H          -1.904523   -1.267129   -1.864728 H         1 <1>         0.033875 
     38 H           0.161811   -2.132705    1.705143 H         1 <1>         0.024010 
     39 H           1.875385   -2.002192    1.512808 H         1 <1>         0.024010 
     40 H           0.999879   -0.746323    2.405494 H         1 <1>         0.024010 
     41 H           3.447007    3.423858   -0.688942 H         1 <1>         0.066173 
     42 H           1.180257    3.315452    0.714270 H         1 <1>         0.027244 
     43 H           0.314860    3.001066   -0.778050 H         1 <1>         0.027244 
     44 H           1.102183    1.142742   -2.492261 H         1 <1>         0.023689 
     45 H           2.042998    2.636186   -2.550207 H         1 <1>         0.023689 
     46 H           2.852650    1.059155   -2.526053 H         1 <1>         0.023689 
     47 H          -1.003783    2.253659    1.074742 H         1 <1>         0.026860 
     48 H           0.293428    1.368838    1.816426 H         1 <1>         0.026860 
     49 H          -0.427008   -3.008648   -1.919622 H         1 <1>         0.034553 
     50 H          -0.328635   -3.192423   -0.183871 H         1 <1>         0.034553 
     51 H          -2.623652    0.898065   -1.640681 H         1 <1>         0.060370 
     52 H          -2.414374    0.436692    2.029061 H         1 <1>         0.023606 
     53 H          -3.371447   -0.974696    1.583849 H         1 <1>         0.023606 
     54 H          -1.719776   -1.161766    2.142458 H         1 <1>         0.023606 
     55 H           2.738931    4.683030    1.786853 H         1 <1>         0.071077 
     56 H           5.167035    1.088285    1.801656 H         1 <1>         0.176354 
     57 H          -5.001343    0.966211   -1.336399 H         1 <1>         0.039168 
     58 H          -4.918141    0.256296    0.286030 H         1 <1>         0.039168 
     59 H          -3.490998    2.626565   -0.331857 H         1 <1>         0.209816 
     60 H           3.802731    4.337374    4.145264 H         1 <1>         0.175965 
     61 H          -4.157985   -4.076303   -2.042966 H         1 <1>         0.025746 
     62 H          -2.404722   -4.350465   -2.133654 H         1 <1>         0.025746 
     63 H          -3.121341   -2.962353   -2.963828 H         1 <1>         0.025746 
     64 H          -2.120291   -4.513945    0.263951 H         1 <1>         0.025746 
     65 H          -3.840793   -4.273432    0.566111 H         1 <1>         0.025746 
     66 H          -2.652059   -3.248108    1.385598 H         1 <1>         0.025746 
@<TRIPOS>BOND
     1    1    2 1    
     2    1    3 1    
     3    1    4 1    
     4    1    5 1    
     5    2    6 1    
     6    2    7 1    
     7    2    8 1    
     8    3    5 1    
     9    3    9 1    
    10    3   35 1    
    11    4   10 1    
    12    4   11 1    
    13    4   12 1    
    14    6   13 1    
    15    6   14 1    
    16    6   36 1    
    17    7   15 1    
    18    7   16 2    
    19    8   38 1    
    20    8   39 1    
    21    8   40 1    
    22    9   17 1    
    23    9   18 2    
    24   10   17 1    
    25   10   19 1    
    26   10   41 1    
    27   11   14 1    
    28   11   42 1    
    29   11   43 1    
    30   12   44 1    
    31   12   45 1    
    32   12   46 1    
    33   13   20 1    
    34   13   21 1    
    35   13   22 1    
    36   14   47 1    
    37   14   48 1    
    38   15   20 1    
    39   15   49 1    
    40   15   50 1    
    41   19   23 1    
    42   19   24 2    
    43   20   25 1    
    44   20   37 1    
    45   21   26 1    
    46   21   27 1    
    47   21   51 1    
    48   22   52 1    
    49   22   53 1    
    50   22   54 1    
    51   23   28 2    
    52   23   55 1    
    53   24   29 1    
    54   24   56 1    
    55   25   30 1    
    56   25   31 1    
    57   25   32 1    
    58   26   33 1    
    59   26   57 1    
    60   26   58 1    
    61   27   59 1    
    62   28   29 1    
    63   28   60 1    
    64   30   33 1    
    65   31   61 1    
    66   31   62 1    
    67   31   63 1    
    68   32   64 1    
    69   32   65 1    
    70   32   66 1    
    71   33   34 2    
@<TRIPOS>SUBSTRUCTURE
     1 ****        1 TEMP              0 ****  ****    0 ROOT 
@<TRIPOS>NORMAL
@<TRIPOS>FF_PBC
FORCE_FIELD_SETUP_FEATURE Force Field Setup information
v1.0  0 0.000000 0.000000 0.000000 0.000000 0.000000 0.000000 NONE 0 0 0 0 1 0 0 0 0 0 0 0 0
