@<TRIPOS>MOLECULE
MOL004920
   18    18     1     1     0
SMALL
GASTEIGER


@<TRIPOS>ATOM
      1 C          -0.303361   -0.282811   -0.684349 C.3       1 <1>        -0.043879 
      2 C          -0.355392    1.160348   -0.128685 C.3       1 <1>        -0.050459 
      3 C           0.328582   -1.056551    0.494458 C.3       1 <1>        -0.050459 
      4 C          -1.689546   -0.834216   -1.106723 C.3       1 <1>        -0.062415 
      5 C           0.965107    1.312379    0.676982 C.3       1 <1>        -0.052807 
      6 C           1.502966   -0.131257    0.890773 C.3       1 <1>        -0.052807 
      7 H           0.383134   -0.314421   -1.549708 H         1 <1>         0.029813 
      8 H          -0.465586    1.912950   -0.926673 H         1 <1>         0.026785 
      9 H          -1.216499    1.251480    0.554629 H         1 <1>         0.026785 
     10 H           0.654556   -2.071949    0.215286 H         1 <1>         0.026785 
     11 H          -0.387999   -1.128491    1.329275 H         1 <1>         0.026785 
     12 H          -1.584227   -1.866045   -1.476217 H         1 <1>         0.023242 
     13 H          -2.111005   -0.210552   -1.910174 H         1 <1>         0.023242 
     14 H          -2.389398   -0.835533   -0.257311 H         1 <1>         0.023242 
     15 H           0.773919    1.815668    1.639912 H         1 <1>         0.026537 
     16 H           1.699163    1.915399    0.116570 H         1 <1>         0.026537 
     17 H           2.343582   -0.322135    0.201633 H         1 <1>         0.026537 
     18 H           1.851804   -0.314063    1.920322 H         1 <1>         0.026537 
@<TRIPOS>BOND
     1    1    2 1    
     2    1    3 1    
     3    1    4 1    
     4    1    7 1    
     5    2    5 1    
     6    2    8 1    
     7    2    9 1    
     8    3    6 1    
     9    3   10 1    
    10    3   11 1    
    11    4   12 1    
    12    4   13 1    
    13    4   14 1    
    14    5    6 1    
    15    5   15 1    
    16    5   16 1    
    17    6   17 1    
    18    6   18 1    
@<TRIPOS>SUBSTRUCTURE
     1 ****        1 TEMP              0 ****  ****    0 ROOT 
@<TRIPOS>NORMAL
@<TRIPOS>FF_PBC
FORCE_FIELD_SETUP_FEATURE Force Field Setup information
v1.0  0 0.000000 0.000000 0.000000 0.000000 0.000000 0.000000 NONE 0 0 0 0 1 0 0 0 0 0 0 0 0
