@<TRIPOS>MOLECULE
MOL005577
   34    33     1     1     0
SMALL
GASTEIGER


@<TRIPOS>ATOM
      1 C           0.374107   -0.377554   -0.000108 C.3       1 <1>        -0.053057 
      2 C          -0.957392   -1.177655    0.000128 C.3       1 <1>        -0.053046 
      3 C           0.110430    1.153382    0.000122 C.3       1 <1>        -0.053057 
      4 C          -0.701246   -2.709757   -0.000106 C.3       1 <1>        -0.052682 
      5 C           1.437892    1.960018   -0.000113 C.3       1 <1>        -0.053065 
      6 C          -2.036261   -3.503942    0.000101 C.3       1 <1>        -0.046641 
      7 C           1.168308    3.489923    0.000115 C.3       1 <1>        -0.053306 
      8 C          -1.786079   -5.036122   -0.000174 C.3       1 <1>         0.002777 
      9 C           2.493412    4.299849   -0.000115 C.3       1 <1>        -0.055911 
     10 C          -3.073913   -5.818639    0.000009 C.2       1 <1>         0.120308 
     11 C           2.220371    5.826670    0.000111 C.3       1 <1>        -0.065276 
     12 O          -3.041948   -7.038466    0.000207 O.2       1 <1>        -0.301035 
     13 H           0.961301   -0.646442   -0.893632 H         1 <1>         0.026528 
     14 H           0.961737   -0.646639    0.893070 H         1 <1>         0.026528 
     15 H          -1.543849   -0.906993    0.893598 H         1 <1>         0.026529 
     16 H          -1.544279   -0.906791   -0.892997 H         1 <1>         0.026529 
     17 H          -0.477371    1.421055    0.893600 H         1 <1>         0.026528 
     18 H          -0.477807    1.421250   -0.893012 H         1 <1>         0.026528 
     19 H          -0.115181   -2.981120   -0.893669 H         1 <1>         0.026539 
     20 H          -0.114775   -2.981331    0.893127 H         1 <1>         0.026539 
     21 H           2.026202    1.693716   -0.893673 H         1 <1>         0.026528 
     22 H           2.026634    1.693525    0.893102 H         1 <1>         0.026528 
     23 H          -2.622305   -3.233961    0.894311 H         1 <1>         0.026918 
     24 H          -2.622717   -3.233713   -0.893766 H         1 <1>         0.026918 
     25 H           0.580015    3.756527    0.893607 H         1 <1>         0.026520 
     26 H           0.579588    3.756719   -0.893044 H         1 <1>         0.026520 
     27 H          -1.208414   -5.320625   -0.893981 H         1 <1>         0.033871 
     28 H          -1.208009   -5.320860    0.893295 H         1 <1>         0.033871 
     29 H           3.085058    4.039910   -0.893758 H         1 <1>         0.026265 
     30 H           3.085480    4.039722    0.893192 H         1 <1>         0.026265 
     31 H          -4.044742   -5.323006   -0.000045 H         1 <1>         0.102608 
     32 H           3.171752    6.381993   -0.000056 H         1 <1>         0.022978 
     33 H           1.647264    6.114684    0.895265 H         1 <1>         0.022978 
     34 H           1.646840    6.114873   -0.894711 H         1 <1>         0.022978 
@<TRIPOS>BOND
     1    1    2 1    
     2    1    3 1    
     3    1   13 1    
     4    1   14 1    
     5    2    4 1    
     6    2   15 1    
     7    2   16 1    
     8    3    5 1    
     9    3   17 1    
    10    3   18 1    
    11    4    6 1    
    12    4   19 1    
    13    4   20 1    
    14    5    7 1    
    15    5   21 1    
    16    5   22 1    
    17    6    8 1    
    18    6   23 1    
    19    6   24 1    
    20    7    9 1    
    21    7   25 1    
    22    7   26 1    
    23    8   10 1    
    24    8   27 1    
    25    8   28 1    
    26    9   11 1    
    27    9   29 1    
    28    9   30 1    
    29   10   12 2    
    30   10   31 1    
    31   11   32 1    
    32   11   33 1    
    33   11   34 1    
@<TRIPOS>SUBSTRUCTURE
     1 ****        1 TEMP              0 ****  ****    0 ROOT 
@<TRIPOS>NORMAL
@<TRIPOS>FF_PBC
FORCE_FIELD_SETUP_FEATURE Force Field Setup information
v1.0  0 0.000000 0.000000 0.000000 0.000000 0.000000 0.000000 NONE 0 0 0 0 1 0 0 0 0 0 0 0 0
