@<TRIPOS>MOLECULE
MOL002172
   21    21     1     1     0
SMALL
GASTEIGER


@<TRIPOS>ATOM
      1 C          -1.474307   -0.693832    1.570070 C.2       1 <1>         0.262424 
      2 C          -1.661509    0.760346    1.209636 C.3       1 <1>         0.033530 
      3 C          -1.023007    1.175193   -0.133879 C.3       1 <1>        -0.039105 
      4 C           0.399039    0.567606   -0.194270 C.3       1 <1>        -0.016747 
      5 C           0.222283   -0.971934   -0.072961 C.3       1 <1>         0.067831 
      6 O          -0.399161   -1.386878    1.161072 O.3       1 <1>        -0.311886 
      7 O          -2.284045   -1.241639    2.299631 O.2       1 <1>        -0.264966 
      8 C           1.564894   -1.743808   -0.150503 C.3       1 <1>        -0.037847 
      9 C           1.106261    1.001157   -1.508810 C.3       1 <1>        -0.060043 
     10 H          -2.735852    1.005564    1.198589 H         1 <1>         0.036616 
     11 H          -1.192406    1.335139    2.023815 H         1 <1>         0.036616 
     12 H          -0.989203    2.275286   -0.205571 H         1 <1>         0.027341 
     13 H          -1.633869    0.797106   -0.970400 H         1 <1>         0.027341 
     14 H           0.991408    0.932223    0.662557 H         1 <1>         0.032321 
     15 H          -0.418563   -1.330604   -0.897294 H         1 <1>         0.060183 
     16 H           1.388621   -2.812654    0.048295 H         1 <1>         0.025475 
     17 H           2.028634   -1.659017   -1.144301 H         1 <1>         0.025475 
     18 H           2.263037   -1.359507    0.608521 H         1 <1>         0.025475 
     19 H           2.160037    0.685506   -1.516674 H         1 <1>         0.023321 
     20 H           1.089981    2.097920   -1.604506 H         1 <1>         0.023321 
     21 H           0.597628    0.567126   -2.383218 H         1 <1>         0.023321 
@<TRIPOS>BOND
     1    1    2 1    
     2    1    6 1    
     3    1    7 2    
     4    2    3 1    
     5    2   10 1    
     6    2   11 1    
     7    3    4 1    
     8    3   12 1    
     9    3   13 1    
    10    4    5 1    
    11    4    9 1    
    12    4   14 1    
    13    5    6 1    
    14    5    8 1    
    15    5   15 1    
    16    8   16 1    
    17    8   17 1    
    18    8   18 1    
    19    9   19 1    
    20    9   20 1    
    21    9   21 1    
@<TRIPOS>SUBSTRUCTURE
     1 ****        1 TEMP              0 ****  ****    0 ROOT 
@<TRIPOS>NORMAL
@<TRIPOS>FF_PBC
FORCE_FIELD_SETUP_FEATURE Force Field Setup information
v1.0  0 0.000000 0.000000 0.000000 0.000000 0.000000 0.000000 NONE 0 0 0 0 1 0 0 0 0 0 0 0 0
