@<TRIPOS>MOLECULE
MOL006120
   95   102     1     1     0
SMALL
GASTEIGER


@<TRIPOS>ATOM
      1 C          -5.275377   -2.101671   -0.773286 C.ar      1 <1>         0.080714 
      2 C          -5.327247   -3.245610   -0.056142 C.ar      1 <1>        -0.001737 
      3 C          -4.126885   -3.721484    0.671826 C.ar      1 <1>         0.077480 
      4 C          -2.989578   -2.982869    0.640906 C.ar      1 <1>        -0.001449 
      5 C          -2.956811   -1.682153   -0.055307 C.ar      1 <1>         0.085208 
      6 C          -4.030570   -1.283608   -0.789479 C.ar      1 <1>         0.014994 
      7 O          -1.794975   -0.899226    0.015276 O.3       1 <1>        -0.333834 
      8 C          -1.383038   -0.546306   -1.306124 C.3       1 <1>         0.117201 
      9 C          -2.466132    0.353270   -1.978906 C.3       1 <1>         0.103160 
     10 C          -3.949054   -0.009907   -1.642722 C.3       1 <1>         0.006983 
     11 C           0.042288   -0.039122   -1.492746 C.2       1 <1>        -0.012758 
     12 O          -2.249643    1.769706   -2.135277 O.3       1 <1>        -0.304822 
     13 O          -6.399583   -1.705506   -1.497504 O.3       1 <1>        -0.359394 
     14 O          -4.184789   -4.930740    1.366670 O.3       1 <1>        -0.359667 
     15 C          -2.088477    2.612494   -1.098256 C.2       1 <1>         0.294326 
     16 C          -1.919638    2.384620    0.392928 C.ar      1 <1>         0.051505 
     17 C          -2.680743    1.428526    1.237129 C.ar      1 <1>        -0.016369 
     18 C          -2.417081    1.289900    2.599314 C.ar      1 <1>         0.105520 
     19 C          -1.407832    2.157666    3.254813 C.ar      1 <1>         0.132457 
     20 C          -0.671998    3.078199    2.488414 C.ar      1 <1>         0.105520 
     21 C          -0.933057    3.188999    1.030853 C.ar      1 <1>        -0.016369 
     22 O          -3.117125    0.333776    3.338825 O.3       1 <1>        -0.357199 
     23 O          -1.211607    2.058894    4.632431 O.3       1 <1>        -0.355395 
     24 O           0.289918    3.877724    3.115794 O.3       1 <1>        -0.357199 
     25 O          -2.034875    3.782273   -1.438736 O.2       1 <1>        -0.259213 
     26 C           0.654621    0.669973   -0.364183 C.2       1 <1>        -0.047665 
     27 C           2.164036    1.253287   -0.154426 C.ar      1 <1>        -0.005424 
     28 C           3.356692    1.653812   -1.254202 C.ar      1 <1>         0.063924 
     29 C           3.498033    1.078479   -2.810421 C.2       1 <1>         0.218623 
     30 C           2.296947    0.034194   -3.684935 C.2       1 <1>         0.120450 
     31 C           0.755856   -0.389483   -3.068982 C.2       1 <1>        -0.022388 
     32 O           2.850540   -0.368110   -4.866810 O.3       1 <1>        -0.356314 
     33 O           4.509871    1.375877   -3.432634 O.2       1 <1>        -0.284431 
     34 C           2.801556    0.891886    1.015761 C.ar      1 <1>        -0.005467 
     35 C           3.640347    1.956670    1.615193 C.ar      1 <1>        -0.023068 
     36 C           4.365707    2.794218    0.751373 C.ar      1 <1>         0.103278 
     37 C           4.383095    2.498495   -0.709306 C.ar      1 <1>         0.113786 
     38 O           5.422097    2.997447   -1.508430 O.3       1 <1>        -0.356701 
     39 O           5.078065    3.867923    1.280379 O.3       1 <1>        -0.357252 
     40 C           2.734068   -0.619198    1.489335 C.3       1 <1>         0.117744 
     41 O           2.812543   -0.630381    2.917339 O.3       1 <1>        -0.333815 
     42 C           1.611683   -0.924290    3.527587 C.ar      1 <1>         0.085209 
     43 C           0.894018   -1.965289    3.080551 C.ar      1 <1>         0.014994 
     44 C           1.493258   -2.780866    1.921595 C.3       1 <1>         0.006984 
     45 C           1.969372   -1.864290    0.755316 C.3       1 <1>         0.103179 
     46 C           1.167385   -0.107125    4.677181 C.ar      1 <1>        -0.001449 
     47 C           0.034583   -0.398057    5.302145 C.ar      1 <1>         0.077480 
     48 C          -0.804026   -1.516502    4.803220 C.ar      1 <1>        -0.001737 
     49 C          -0.403628   -2.266317    3.740769 C.ar      1 <1>         0.080714 
     50 O          -1.202402   -3.314736    3.280576 O.3       1 <1>        -0.359394 
     51 O          -0.346968    0.348861    6.417575 O.3       1 <1>        -0.359667 
     52 O           2.691458   -2.845792   -0.149907 O.3       1 <1>        -0.304822 
     53 C           2.616746   -2.990961   -1.551179 C.2       1 <1>         0.294326 
     54 C           2.133108   -2.007930   -2.612052 C.ar      1 <1>         0.051505 
     55 C           1.555245   -2.108142   -4.164912 C.ar      1 <1>        -0.016369 
     56 C           0.669344   -0.277610   -5.255749 C.ar      1 <1>         0.105520 
     57 C           0.627638    1.212563   -4.514763 C.ar      1 <1>         0.132457 
     58 C           1.424894    1.421446   -2.359784 C.ar      1 <1>         0.105520 
     59 C           2.258205   -0.272106   -1.645572 C.ar      1 <1>        -0.016369 
     60 O           3.002098   -4.060068   -1.999433 O.2       1 <1>        -0.259213 
     61 O           0.157632   -0.432566   -6.542192 O.3       1 <1>        -0.357199 
     62 O           0.105392    2.302872   -5.199741 O.3       1 <1>        -0.355395 
     63 O           1.260333    2.691523   -1.749521 O.3       1 <1>        -0.357199 
     64 H          -6.246750   -3.825960   -0.019935 H         1 <1>         0.066912 
     65 H          -2.081089   -3.339083    1.102098 H         1 <1>         0.066920 
     66 H          -1.373760   -1.554286   -1.765918 H         1 <1>         0.067790 
     67 H          -2.338803    0.094329   -3.043971 H         1 <1>         0.063499 
     68 H          -4.486773    0.827557   -1.165997 H         1 <1>         0.034098 
     69 H          -4.498546   -0.225975   -2.577001 H         1 <1>         0.034098 
     70 H          -6.618678   -0.791112   -1.362688 H         1 <1>         0.217327 
     71 H          -3.356779   -5.398978    1.394501 H         1 <1>         0.217316 
     72 H          -3.462740    0.817858    0.827586 H         1 <1>         0.065181 
     73 H          -0.354700    3.897424    0.444977 H         1 <1>         0.065181 
     74 H          -2.922509    0.406672    4.267508 H         1 <1>         0.217423 
     75 H          -0.488287    2.599178    4.937704 H         1 <1>         0.217501 
     76 H           0.741460    4.468761    2.522729 H         1 <1>         0.217423 
     77 H           0.045021    0.777484    0.529184 H         1 <1>         0.062729 
     78 H          -0.153638   -0.945071   -3.361875 H         1 <1>         0.064798 
     79 H           3.750217   -0.083250   -5.000078 H         1 <1>         0.217460 
     80 H           3.667394    2.095642    2.689020 H         1 <1>         0.064778 
     81 H           5.482630    2.582477   -2.366346 H         1 <1>         0.217444 
     82 H           5.349797    4.473843    0.597122 H         1 <1>         0.217422 
     83 H           3.778876   -0.918196    1.303334 H         1 <1>         0.067808 
     84 H           2.381079   -3.296903    2.317108 H         1 <1>         0.034098 
     85 H           0.789111   -3.551671    1.564419 H         1 <1>         0.034098 
     86 H           1.001059   -1.609606    0.316503 H         1 <1>         0.063499 
     87 H           1.780863    0.721672    5.008593 H         1 <1>         0.066920 
     88 H          -1.744335   -1.734003    5.298580 H         1 <1>         0.066912 
     89 H          -2.130809   -3.190215    3.465716 H         1 <1>         0.217327 
     90 H          -1.186412    0.091251    6.780990 H         1 <1>         0.217316 
     91 H           1.580567   -3.054870   -4.683980 H         1 <1>         0.065181 
     92 H           2.941948   -0.594032   -0.878530 H         1 <1>         0.065181 
     93 H          -0.142452    0.401609   -6.888937 H         1 <1>         0.217423 
     94 H           0.491617    3.113152   -4.889104 H         1 <1>         0.217501 
     95 H           0.658109    3.236406   -2.245631 H         1 <1>         0.217423 
@<TRIPOS>BOND
     1    1    2 2    
     2    1    6 1    
     3    1   13 1    
     4    2    3 1    
     5    2   64 1    
     6    3    4 2    
     7    3   14 1    
     8    4    5 1    
     9    4   65 1    
    10    5    6 2    
    11    5    7 1    
    12    6   10 1    
    13    7    8 1    
    14    8    9 1    
    15    8   11 1    
    16    8   66 1    
    17    9   10 1    
    18    9   12 1    
    19    9   67 1    
    20   10   68 1    
    21   10   69 1    
    22   11   26 2    
    23   11   31 1    
    24   12   15 1    
    25   13   70 1    
    26   14   71 1    
    27   15   16 1    
    28   15   25 2    
    29   16   17 1    
    30   16   21 2    
    31   17   18 2    
    32   17   72 1    
    33   18   19 1    
    34   18   22 1    
    35   19   20 2    
    36   19   23 1    
    37   20   21 1    
    38   20   24 1    
    39   21   73 1    
    40   22   74 1    
    41   23   75 1    
    42   24   76 1    
    43   26   27 1    
    44   26   77 1    
    45   27   28 1    
    46   27   34 2    
    47   28   29 1    
    48   28   37 2    
    49   29   30 1    
    50   29   33 2    
    51   30   31 2    
    52   30   32 1    
    53   31   78 1    
    54   32   79 1    
    55   34   35 1    
    56   34   40 1    
    57   35   36 2    
    58   35   80 1    
    59   36   37 1    
    60   36   39 1    
    61   37   38 1    
    62   38   81 1    
    63   39   82 1    
    64   40   41 1    
    65   40   45 1    
    66   40   83 1    
    67   41   42 1    
    68   42   43 2    
    69   42   46 1    
    70   43   44 1    
    71   43   49 1    
    72   44   45 1    
    73   44   84 1    
    74   44   85 1    
    75   45   52 1    
    76   45   86 1    
    77   46   47 2    
    78   46   87 1    
    79   47   48 1    
    80   47   51 1    
    81   48   49 2    
    82   48   88 1    
    83   49   50 1    
    84   50   89 1    
    85   51   90 1    
    86   52   53 1    
    87   53   54 1    
    88   53   60 2    
    89   54   55 1    
    90   54   59 2    
    91   55   56 2    
    92   55   91 1    
    93   56   57 1    
    94   56   61 1    
    95   57   58 2    
    96   57   62 1    
    97   58   59 1    
    98   58   63 1    
    99   59   92 1    
   100   61   93 1    
   101   62   94 1    
   102   63   95 1    
@<TRIPOS>SUBSTRUCTURE
     1 ****        1 TEMP              0 ****  ****    0 ROOT 
@<TRIPOS>NORMAL
@<TRIPOS>FF_PBC
FORCE_FIELD_SETUP_FEATURE Force Field Setup information
v1.0  0 0.000000 0.000000 0.000000 0.000000 0.000000 0.000000 NONE 0 0 0 0 1 0 0 0 0 0 0 0 0
