@<TRIPOS>MOLECULE
MOL001669
   27    28     1     1     0
SMALL
GASTEIGER


@<TRIPOS>ATOM
      1 O          -2.819105   -0.185066   -0.636120 O.3       1 <1>        -0.366103 
      2 O          -1.468069    1.554050    0.052349 O.3       1 <1>        -0.321970 
      3 O           1.413254    0.549128    3.402478 O.3       1 <1>        -0.390724 
      4 O           1.087335   -0.201657   -3.626902 O.3       1 <1>        -0.327672 
      5 O           1.087484    1.921122   -3.112048 O.2       1 <1>        -0.259701 
      6 C          -0.718208   -0.717993    0.506926 C.3       1 <1>         0.040800 
      7 C          -0.023620   -0.795074   -0.873398 C.3       1 <1>         0.006317 
      8 C          -1.918224    0.240854    0.399850 C.3       1 <1>         0.168381 
      9 C           1.438713   -1.201685   -0.528945 C.3       1 <1>        -0.026630 
     10 C           0.432569   -0.264523    1.359488 C.2       1 <1>        -0.039923 
     11 C           1.613596   -0.533032    0.803169 C.2       1 <1>        -0.081574 
     12 C          -0.030332    0.566187   -1.549240 C.2       1 <1>         0.050600 
     13 C           0.173938    0.399828    2.687121 C.3       1 <1>         0.065735 
     14 C          -0.698609    1.619601   -1.045689 C.2       1 <1>         0.052265 
     15 C           0.742814    0.793176   -2.801066 C.2       1 <1>         0.289411 
     16 H          -3.201630   -1.039445   -0.466715 H         1 <1>         0.212509 
     17 H           1.308151    0.970246    4.250494 H         1 <1>         0.209834 
     18 H           0.764059   -1.061533   -3.396484 H         1 <1>         0.220546 
     19 H          -1.041978   -1.713257    0.853977 H         1 <1>         0.040164 
     20 H          -0.540150   -1.528440   -1.513720 H         1 <1>         0.036163 
     21 H          -2.449159    0.316735    1.364484 H         1 <1>         0.091760 
     22 H           1.533268   -2.290913   -0.393972 H         1 <1>         0.031347 
     23 H           2.187285   -0.860188   -1.259799 H         1 <1>         0.031347 
     24 H           2.579782   -0.305783    1.253469 H         1 <1>         0.057263 
     25 H          -0.523724   -0.225478    3.268331 H         1 <1>         0.060399 
     26 H          -0.284325    1.386466    2.507292 H         1 <1>         0.060399 
     27 H          -0.645211    2.606769   -1.505628 H         1 <1>         0.089058 
@<TRIPOS>BOND
     1    8    1 1    
     2    1   16 1    
     3    2    8 1    
     4   14    2 1    
     5   13    3 1    
     6    3   17 1    
     7   15    4 1    
     8    4   18 1    
     9   15    5 2    
    10    7    6 1    
    11    6    8 1    
    12    6   10 1    
    13    6   19 1    
    14    7    9 1    
    15   12    7 1    
    16    7   20 1    
    17    8   21 1    
    18    9   11 1    
    19    9   22 1    
    20    9   23 1    
    21   11   10 2    
    22   10   13 1    
    23   11   24 1    
    24   12   14 2    
    25   12   15 1    
    26   13   25 1    
    27   13   26 1    
    28   14   27 1    
@<TRIPOS>SUBSTRUCTURE
     1 ****        6 TEMP              0 ****  ****    0 ROOT 
@<TRIPOS>NORMAL
@<TRIPOS>FF_PBC
FORCE_FIELD_SETUP_FEATURE Force Field Setup information
v1.0  0 0.000000 0.000000 0.000000 0.000000 0.000000 0.000000 NONE 0 0 0 0 1 0 0 0 0 0 0 0 0
