@<TRIPOS>MOLECULE
MOL001891
   24    26     1     1     0
SMALL
GASTEIGER


@<TRIPOS>ATOM
      1 C           0.360697    0.668180   -1.360230 C.2       1 <1>        -0.016662 
      2 C          -0.998397    0.203368   -0.894581 C.ar      1 <1>        -0.010134 
      3 C          -2.310534    0.253598   -1.577421 C.ar      1 <1>        -0.053448 
      4 C          -3.434559   -0.263093   -0.892101 C.ar      1 <1>        -0.061148 
      5 C          -3.289098   -0.836492    0.472200 C.ar      1 <1>        -0.061148 
      6 C          -2.024310   -0.873592    1.104695 C.ar      1 <1>        -0.053430 
      7 C          -0.862532   -0.327390    0.368865 C.ar      1 <1>        -0.009596 
      8 C           0.555965   -0.240816    0.787508 C.ar      1 <1>        -0.009596 
      9 C           1.187213   -0.677583    2.052525 C.ar      1 <1>        -0.053430 
     10 C           2.579488   -0.478318    2.204206 C.ar      1 <1>        -0.061148 
     11 C           3.374795    0.152490    1.117545 C.ar      1 <1>        -0.061148 
     12 C           2.750987    0.562485   -0.083575 C.ar      1 <1>        -0.053448 
     13 C           1.293484    0.343231   -0.218153 C.ar      1 <1>        -0.010134 
     14 C           0.670184    1.241523   -2.527405 C.2       1 <1>        -0.090345 
     15 H          -2.406925    0.673576   -2.572314 H         1 <1>         0.062380 
     16 H          -4.411544   -0.241671   -1.364216 H         1 <1>         0.061777 
     17 H          -4.161159   -1.229113    0.985135 H         1 <1>         0.061777 
     18 H          -1.907087   -1.289440    2.099188 H         1 <1>         0.062380 
     19 H           0.597908   -1.136545    2.838502 H         1 <1>         0.062380 
     20 H           3.072707   -0.787606    3.120077 H         1 <1>         0.061777 
     21 H           4.442157    0.298679    1.248773 H         1 <1>         0.061777 
     22 H           3.322684    1.023230   -0.881298 H         1 <1>         0.062380 
     23 H          -0.095970    1.425968   -3.278317 H         1 <1>         0.054096 
     24 H           1.694443    1.535235   -2.749906 H         1 <1>         0.054096 
@<TRIPOS>BOND
     1    1    2 1    
     2    1   13 1    
     3    1   14 2    
     4    2    3 1    
     5    2    7 2    
     6    3    4 2    
     7    3   15 1    
     8    4    5 1    
     9    4   16 1    
    10    5    6 2    
    11    5   17 1    
    12    6    7 1    
    13    6   18 1    
    14    7    8 1    
    15    8    9 1    
    16    8   13 2    
    17    9   10 2    
    18    9   19 1    
    19   10   11 1    
    20   10   20 1    
    21   11   12 2    
    22   11   21 1    
    23   12   13 1    
    24   12   22 1    
    25   14   23 1    
    26   14   24 1    
@<TRIPOS>SUBSTRUCTURE
     1 ****        1 TEMP              0 ****  ****    0 ROOT 
@<TRIPOS>NORMAL
@<TRIPOS>FF_PBC
FORCE_FIELD_SETUP_FEATURE Force Field Setup information
v1.0  0 0.000000 0.000000 0.000000 0.000000 0.000000 0.000000 NONE 0 0 0 0 1 0 0 0 0 0 0 0 0
