@<TRIPOS>MOLECULE
MOL002201
   28    29     1     1     0
SMALL
GASTEIGER


@<TRIPOS>ATOM
      1 C          -0.817781   -0.596165    0.798335 C.2       1 <1>        -0.003959 
      2 C          -1.493059   -1.390477    1.620293 C.2       1 <1>         0.052182 
      3 C           0.014833   -1.516931   -0.007019 C.2       1 <1>         0.086474 
      4 C          -0.994324    0.899875    0.830390 C.3       1 <1>        -0.021043 
      5 C          -1.054954   -2.738237    1.258093 C.2       1 <1>         0.299103 
      6 C          -2.441147   -0.899020    2.626938 C.2       1 <1>        -0.052436 
      7 O          -0.164880   -2.817178    0.268112 O.3       1 <1>        -0.273962 
      8 C           0.911867   -1.186872   -0.947235 C.2       1 <1>        -0.053060 
      9 C          -2.390460    1.270598    1.413069 C.3       1 <1>        -0.030357 
     10 O          -1.478604   -3.732890    1.822825 O.2       1 <1>        -0.258816 
     11 C          -2.852856    0.371197    2.538710 C.2       1 <1>        -0.082952 
     12 C           1.299644    0.209563   -1.369990 C.3       1 <1>        -0.032278 
     13 C           2.641685    0.221878   -2.151633 C.3       1 <1>        -0.052380 
     14 C           3.044201    1.662627   -2.562224 C.3       1 <1>        -0.064997 
     15 H          -0.204842    1.303785    1.483926 H         1 <1>         0.031714 
     16 H          -0.904641    1.354146   -0.166869 H         1 <1>         0.031714 
     17 H          -2.790284   -1.567647    3.414257 H         1 <1>         0.062226 
     18 H           1.407627   -2.020014   -1.447798 H         1 <1>         0.059779 
     19 H          -2.375311    2.320385    1.749738 H         1 <1>         0.031056 
     20 H          -3.151780    1.179792    0.621121 H         1 <1>         0.031056 
     21 H          -3.554078    0.760729    3.278822 H         1 <1>         0.057233 
     22 H           1.422048    0.846175   -0.480819 H         1 <1>         0.030812 
     23 H           0.506648    0.619607   -2.014968 H         1 <1>         0.030812 
     24 H           2.546562   -0.395983   -3.060608 H         1 <1>         0.026559 
     25 H           3.436987   -0.210714   -1.521245 H         1 <1>         0.026559 
     26 H           3.995784    1.646575   -3.116894 H         1 <1>         0.022987 
     27 H           3.170124    2.296738   -1.670758 H         1 <1>         0.022987 
     28 H           2.270789    2.108661   -3.206869 H         1 <1>         0.022987 
@<TRIPOS>BOND
     1    1    2 2    
     2    1    3 1    
     3    1    4 1    
     4    2    5 1    
     5    2    6 1    
     6    3    7 1    
     7    3    8 2    
     8    4    9 1    
     9    4   15 1    
    10    4   16 1    
    11    5    7 1    
    12    5   10 2    
    13    6   11 2    
    14    6   17 1    
    15    8   12 1    
    16    8   18 1    
    17    9   11 1    
    18    9   19 1    
    19    9   20 1    
    20   11   21 1    
    21   12   13 1    
    22   12   22 1    
    23   12   23 1    
    24   13   14 1    
    25   13   24 1    
    26   13   25 1    
    27   14   26 1    
    28   14   27 1    
    29   14   28 1    
@<TRIPOS>SUBSTRUCTURE
     1 ****        1 TEMP              0 ****  ****    0 ROOT 
@<TRIPOS>NORMAL
@<TRIPOS>FF_PBC
FORCE_FIELD_SETUP_FEATURE Force Field Setup information
v1.0  0 0.000000 0.000000 0.000000 0.000000 0.000000 0.000000 NONE 0 0 0 0 1 0 0 0 0 0 0 0 0
