@<TRIPOS>MOLECULE
MOL000787
   45    49     1     1     0
SMALL
GASTEIGER


@<TRIPOS>ATOM
      1 C           2.252213   -0.238482    0.725789 C.ar      1 <1>         0.002781 
      2 C           3.533800   -0.247844   -0.018979 C.ar      1 <1>         0.113681 
      3 C           1.438231   -1.429756    0.626718 C.ar      1 <1>        -0.032905 
      4 C           1.911219    1.026709    1.531770 C.3       1 <1>         0.026556 
      5 C           3.944296   -1.284226   -0.750908 C.ar      1 <1>         0.109356 
      6 O           4.430751    0.802469   -0.042386 O.3       1 <1>        -0.314727 
      7 C           0.065730   -1.589846    1.307542 C.3       1 <1>         0.036023 
      8 C           1.937903   -2.585177   -0.176137 C.ar      1 <1>        -0.055258 
      9 N           1.205490    2.063548    0.735425 N.3       1 <1>        -0.300764 
     10 C           3.158449   -2.526960   -0.866698 C.ar      1 <1>        -0.028748 
     11 O           5.159269   -1.065567   -1.369867 O.3       1 <1>        -0.315042 
     12 C           5.579507    0.103528   -0.606222 C.3       1 <1>         0.160043 
     13 C          -1.054077   -1.974622    0.366779 C.2       1 <1>         0.167783 
     14 C          -0.263670    1.934167    0.574164 C.3       1 <1>         0.002931 
     15 C           1.934800    2.580169   -0.447563 C.3       1 <1>        -0.012418 
     16 C          -2.197424   -1.051297   -0.006919 C.ar      1 <1>         0.023533 
     17 O          -1.073701   -3.105382   -0.092593 O.2       1 <1>        -0.291700 
     18 C          -0.636518    1.001617   -0.608001 C.3       1 <1>        -0.014116 
     19 C          -2.021493    0.375733   -0.418621 C.ar      1 <1>        -0.033081 
     20 C          -3.505309   -1.605297    0.046961 C.ar      1 <1>        -0.018283 
     21 C          -3.163532    1.185998   -0.673944 C.ar      1 <1>        -0.025150 
     22 C          -4.651249   -0.723762   -0.257261 C.ar      1 <1>         0.109708 
     23 C          -4.495295    0.556754   -0.573066 C.ar      1 <1>         0.109324 
     24 O          -5.972779   -1.120730   -0.242870 O.3       1 <1>        -0.315031 
     25 O          -5.689440    1.207535   -0.806029 O.3       1 <1>        -0.315043 
     26 C          -6.591455    0.201018   -0.255602 C.3       1 <1>         0.160031 
     27 H           1.367050    0.783018    2.455001 H         1 <1>         0.047645 
     28 H           2.858465    1.471700    1.873956 H         1 <1>         0.047645 
     29 H           0.174635   -2.399547    2.043119 H         1 <1>         0.039371 
     30 H          -0.258399   -0.705121    1.861164 H         1 <1>         0.039371 
     31 H           1.355811   -3.498095   -0.232480 H         1 <1>         0.062130 
     32 H           3.520309   -3.361427   -1.458458 H         1 <1>         0.064421 
     33 H           6.203389    0.779420   -1.212920 H         1 <1>         0.087950 
     34 H           6.190500   -0.261668    0.239179 H         1 <1>         0.087950 
     35 H          -0.694642    2.934915    0.399788 H         1 <1>         0.042968 
     36 H          -0.708310    1.567719    1.510037 H         1 <1>         0.042968 
     37 H           1.427318    3.466794   -0.856904 H         1 <1>         0.039072 
     38 H           2.003927    1.818271   -1.238340 H         1 <1>         0.039072 
     39 H           2.954486    2.882553   -0.168120 H         1 <1>         0.039072 
     40 H          -0.630272    1.578473   -1.546511 H         1 <1>         0.032576 
     41 H           0.091322    0.197231   -0.745240 H         1 <1>         0.032576 
     42 H          -3.674775   -2.642027    0.314618 H         1 <1>         0.065118 
     43 H          -3.072241    2.230246   -0.950499 H         1 <1>         0.064705 
     44 H          -6.787845    0.475419    0.795489 H         1 <1>         0.087950 
     45 H          -7.556243    0.191125   -0.785262 H         1 <1>         0.087950 
@<TRIPOS>BOND
     1    1    2 1    
     2    1    3 2    
     3    1    4 1    
     4    2    5 2    
     5    2    6 1    
     6    3    7 1    
     7    3    8 1    
     8    4    9 1    
     9    4   27 1    
    10    4   28 1    
    11    5   10 1    
    12    5   11 1    
    13    6   12 1    
    14    7   13 1    
    15    7   29 1    
    16    7   30 1    
    17    8   10 2    
    18    8   31 1    
    19    9   14 1    
    20    9   15 1    
    21   10   32 1    
    22   11   12 1    
    23   12   33 1    
    24   12   34 1    
    25   13   16 1    
    26   13   17 2    
    27   14   18 1    
    28   14   35 1    
    29   14   36 1    
    30   15   37 1    
    31   15   38 1    
    32   15   39 1    
    33   16   19 1    
    34   16   20 2    
    35   18   19 1    
    36   18   40 1    
    37   18   41 1    
    38   19   21 2    
    39   20   22 1    
    40   20   42 1    
    41   21   23 1    
    42   21   43 1    
    43   22   23 2    
    44   22   24 1    
    45   23   25 1    
    46   24   26 1    
    47   25   26 1    
    48   26   44 1    
    49   26   45 1    
@<TRIPOS>SUBSTRUCTURE
     1 ****        1 TEMP              0 ****  ****    0 ROOT 
@<TRIPOS>NORMAL
@<TRIPOS>FF_PBC
FORCE_FIELD_SETUP_FEATURE Force Field Setup information
v1.0  0 0.000000 0.000000 0.000000 0.000000 0.000000 0.000000 NONE 0 0 0 0 1 0 0 0 0 0 0 0 0
