@<TRIPOS>MOLECULE
MOL000165
   42    43     1     1     0
SMALL
GASTEIGER


@<TRIPOS>ATOM
      1 C          -2.244665   -2.294948   -2.057557 C.3       1 <1>        -0.036079 
      2 C          -1.441275   -2.346215   -0.723410 C.3       1 <1>         0.063357 
      3 C          -2.028334   -3.477955    0.170462 C.3       1 <1>        -0.036079 
      4 O          -0.058076   -2.625050   -1.001103 O.3       1 <1>        -0.388845 
      5 C          -0.803460    0.214550   -0.728624 C.3       1 <1>        -0.038000 
      6 C          -1.510350   -0.969651    0.012454 C.3       1 <1>        -0.011820 
      7 C          -0.888769   -0.981880    1.433223 C.3       1 <1>        -0.046796 
      8 C          -0.436820    0.482023    1.609091 C.3       1 <1>        -0.043081 
      9 C           0.243811    0.844097    0.254004 C.3       1 <1>        -0.005585 
     10 C           0.431164    2.360309    0.254960 C.2       1 <1>        -0.070108 
     11 C           1.577760    2.933550    0.656462 C.2       1 <1>        -0.084478 
     12 C           2.816286    2.194883    1.101945 C.3       1 <1>        -0.034231 
     13 C           2.657986    0.654019    1.137911 C.3       1 <1>        -0.046218 
     14 C           1.663174    0.192246    0.035509 C.3       1 <1>        -0.034251 
     15 C           2.285939    0.511808   -1.363482 C.3       1 <1>        -0.061611 
     16 C          -0.721485    3.233089   -0.207221 C.3       1 <1>        -0.043251 
     17 H          -1.842991   -1.540360   -2.747448 H         1 <1>         0.025721 
     18 H          -3.301194   -2.057037   -1.861215 H         1 <1>         0.025721 
     19 H          -2.201458   -3.268361   -2.569327 H         1 <1>         0.025721 
     20 H          -1.421357   -3.625407    1.075049 H         1 <1>         0.025721 
     21 H          -3.058292   -3.235111    0.473111 H         1 <1>         0.025721 
     22 H          -2.043686   -4.433034   -0.376175 H         1 <1>         0.025721 
     23 H           0.075962   -3.451804   -1.451591 H         1 <1>         0.210147 
     24 H          -1.587203    0.930303   -1.011320 H         1 <1>         0.027729 
     25 H          -0.346239   -0.107338   -1.667867 H         1 <1>         0.027729 
     26 H          -2.579535   -0.721794    0.145300 H         1 <1>         0.032851 
     27 H          -1.607096   -1.286692    2.213242 H         1 <1>         0.026909 
     28 H          -0.019560   -1.652033    1.498125 H         1 <1>         0.026909 
     29 H           0.165774    0.632446    2.513604 H         1 <1>         0.027384 
     30 H          -1.347430    1.088589    1.743689 H         1 <1>         0.027384 
     31 H           1.669138    4.020792    0.660359 H         1 <1>         0.057171 
     32 H           3.605184    2.456299    0.377436 H         1 <1>         0.030749 
     33 H           3.136620    2.561897    2.090816 H         1 <1>         0.030749 
     34 H           3.644768    0.180687    0.998196 H         1 <1>         0.027105 
     35 H           2.323521    0.327648    2.131475 H         1 <1>         0.027105 
     36 H           1.607669   -0.905625    0.089931 H         1 <1>         0.030662 
     37 H           1.828828   -0.070017   -2.175846 H         1 <1>         0.023268 
     38 H           3.356521    0.255848   -1.378090 H         1 <1>         0.023268 
     39 H           2.190694    1.577620   -1.615711 H         1 <1>         0.023268 
     40 H          -1.666482    2.950661    0.277790 H         1 <1>         0.027453 
     41 H          -0.829874    3.144497   -1.298371 H         1 <1>         0.027453 
     42 H          -0.558223    4.298096    0.016135 H         1 <1>         0.027453 
@<TRIPOS>BOND
     1    1    2 1    
     2    1   17 1    
     3    1   18 1    
     4    1   19 1    
     5    2    3 1    
     6    2    4 1    
     7    2    6 1    
     8    3   20 1    
     9    3   21 1    
    10    3   22 1    
    11    4   23 1    
    12    6    5 1    
    13    5    9 1    
    14    5   24 1    
    15    5   25 1    
    16    6    7 1    
    17    6   26 1    
    18    7    8 1    
    19    7   27 1    
    20    7   28 1    
    21    8    9 1    
    22    8   29 1    
    23    8   30 1    
    24    9   10 1    
    25    9   14 1    
    26   10   11 2    
    27   10   16 1    
    28   11   12 1    
    29   11   31 1    
    30   12   13 1    
    31   12   32 1    
    32   12   33 1    
    33   13   14 1    
    34   13   34 1    
    35   13   35 1    
    36   14   15 1    
    37   14   36 1    
    38   15   37 1    
    39   15   38 1    
    40   15   39 1    
    41   16   40 1    
    42   16   41 1    
    43   16   42 1    
@<TRIPOS>SUBSTRUCTURE
     1 ****        1 TEMP              0 ****  ****    0 ROOT 
@<TRIPOS>NORMAL
@<TRIPOS>FF_PBC
FORCE_FIELD_SETUP_FEATURE Force Field Setup information
v1.0  0 0.000000 0.000000 0.000000 0.000000 0.000000 0.000000 NONE 0 0 0 0 1 0 0 0 0 0 0 0 0
