@<TRIPOS>MOLECULE
MOL004556
  132   135     1     1     0
SMALL
GASTEIGER


@<TRIPOS>ATOM
      1 O          -8.266404   -5.593729   -0.057454 O.3       1 <1>        -0.340532 
      2 O         -20.503008  -12.386854  -16.838996 O.3       1 <1>        -0.340532 
      3 O          -6.476993   -5.835886   -3.969155 O.3       1 <1>        -0.340045 
      4 O         -15.462007  -13.005041  -15.178396 O.3       1 <1>        -0.340045 
      5 O         -18.644637  -12.318296  -15.358823 O.3       1 <1>        -0.346050 
      6 O          -7.133153   -3.712534   -0.881684 O.3       1 <1>        -0.346050 
      7 O         -14.451861  -12.224736  -17.736974 O.3       1 <1>        -0.386488 
      8 O          -5.299274   -7.818722   -2.335553 O.3       1 <1>        -0.386488 
      9 O         -22.265889  -12.376969  -14.355291 O.3       1 <1>        -0.384104 
     10 O          -7.340227   -4.738741    2.702471 O.3       1 <1>        -0.384104 
     11 O         -19.799294   -9.662087  -14.529869 O.3       1 <1>        -0.386401 
     12 O          -8.873542   -2.088479    0.661625 O.3       1 <1>        -0.386401 
     13 O         -16.628917  -15.248383  -17.655341 O.3       1 <1>        -0.386401 
     14 O          -3.482235   -4.567497   -2.329367 O.3       1 <1>        -0.386401 
     15 O          -9.997412   -5.294349    2.266378 O.3       1 <1>        -0.386488 
     16 O         -22.837134  -10.659924  -16.489125 O.3       1 <1>        -0.386488 
     17 O         -13.118478  -14.374649  -16.640390 O.3       1 <1>        -0.384090 
     18 O          -3.995578   -7.337557   -4.817973 O.3       1 <1>        -0.384090 
     19 O         -16.119152  -15.213541  -14.653127 O.3       1 <1>        -0.278563 
     20 O          -5.355806   -3.891291   -4.705201 O.3       1 <1>        -0.278563 
     21 O         -19.315255   -8.982120  -17.977105 O.3       1 <1>        -0.392366 
     22 O         -11.278136   -3.966036   -1.623782 O.3       1 <1>        -0.392366 
     23 O          -6.493456   -2.074864   -5.243227 O.2       1 <1>        -0.259505 
     24 O         -17.504138  -15.515724  -12.957757 O.2       1 <1>        -0.259505 
     25 C          -6.350235   -5.647884   -2.538395 C.3       1 <1>         0.113379 
     26 C         -16.346495  -12.668004  -16.274784 C.3       1 <1>         0.113379 
     27 C         -15.653043  -13.014796  -17.623372 C.3       1 <1>         0.111906 
     28 C          -5.075939   -6.414891   -2.072077 C.3       1 <1>         0.111906 
     29 C         -20.926354  -11.840057  -14.449142 C.3       1 <1>         0.134113 
     30 C          -7.448306   -3.880830    1.542937 C.3       1 <1>         0.134113 
     31 C          -8.846419   -3.219420    1.555528 C.3       1 <1>         0.114061 
     32 C         -21.038789  -10.339601  -14.813398 C.3       1 <1>         0.114061 
     33 C         -15.373197  -14.536194  -17.666485 C.3       1 <1>         0.114076 
     34 C          -3.808703   -5.892843   -2.799981 C.3       1 <1>         0.114076 
     35 C          -7.219921   -4.641330    0.205439 C.3       1 <1>         0.188012 
     36 C         -20.055164  -12.607896  -15.485514 C.3       1 <1>         0.188012 
     37 C          -9.924949   -4.290257    1.230431 C.3       1 <1>         0.111896 
     38 C         -21.486573  -10.185817  -16.294811 C.3       1 <1>         0.111896 
     39 C          -9.590031   -5.011003   -0.104252 C.3       1 <1>         0.113005 
     40 C         -20.557481  -10.999173  -17.234850 C.3       1 <1>         0.113005 
     41 C          -4.021546   -5.971222   -4.335500 C.3       1 <1>         0.134619 
     42 C         -14.455092  -14.905697  -16.471821 C.3       1 <1>         0.134619 
     43 C         -17.822685  -13.176163  -16.186409 C.3       1 <1>         0.079556 
     44 C          -6.492472   -4.146031   -2.106522 C.3       1 <1>         0.079556 
     45 C         -15.039133  -14.384678  -15.128205 C.3       1 <1>         0.196837 
     46 C          -5.375236   -5.334581   -4.753192 C.3       1 <1>         0.196837 
     47 C          -9.871941   -4.180295   -1.393263 C.3       1 <1>         0.073015 
     48 C         -19.174372  -10.321731  -17.462943 C.3       1 <1>         0.073015 
     49 C          -6.357200   -3.279511   -5.371789 C.2       1 <1>         0.291835 
     50 C         -16.483397  -14.994625  -13.373607 C.2       1 <1>         0.291835 
     51 C          -7.265037   -4.027422   -6.280369 C.2       1 <1>         0.021070 
     52 C         -15.653609  -14.185527  -12.448442 C.2       1 <1>         0.021070 
     53 C          -6.972380   -3.982158   -7.761098 C.3       1 <1>        -0.034037 
     54 C         -14.665800  -14.917159  -11.572215 C.3       1 <1>        -0.034037 
     55 C         -15.752866  -12.847152  -12.421990 C.2       1 <1>        -0.053158 
     56 C          -8.288385   -4.747081   -5.800047 C.2       1 <1>        -0.053158 
     57 C         -14.894709  -11.943947  -11.619694 C.2       1 <1>        -0.061082 
     58 C          -9.168614   -5.631684   -6.600835 C.2       1 <1>        -0.061082 
     59 C         -14.493550  -10.771152  -12.129168 C.2       1 <1>        -0.058827 
     60 C          -9.522130   -6.826665   -6.102886 C.2       1 <1>        -0.058827 
     61 C         -13.612447   -9.732808  -11.530343 C.2       1 <1>        -0.050445 
     62 C         -10.342588   -7.903748   -6.715750 C.2       1 <1>        -0.050445 
     63 C         -12.859218   -8.820851  -12.476679 C.3       1 <1>        -0.039709 
     64 C         -10.128647   -9.319085   -6.217819 C.3       1 <1>        -0.039709 
     65 C         -13.460051   -9.586481  -10.203093 C.2       1 <1>        -0.058837 
     66 C         -11.243189   -7.669602   -7.682838 C.2       1 <1>        -0.058837 
     67 C         -12.086158   -8.704347   -8.328622 C.2       1 <1>        -0.061502 
     68 C         -12.605583   -8.564438   -9.554381 C.2       1 <1>        -0.061502 
     69 H         -16.424747  -11.568299  -16.252353 H         1 <1>         0.064677 
     70 H          -7.223516   -6.185224   -2.145187 H         1 <1>         0.064677 
     71 H         -16.319243  -12.752123  -18.463108 H         1 <1>         0.064673 
     72 H          -4.909317   -6.306796   -0.990744 H         1 <1>         0.064673 
     73 H         -20.444246  -11.912172  -13.459200 H         1 <1>         0.067095 
     74 H          -6.698630   -3.073953    1.624735 H         1 <1>         0.067095 
     75 H         -21.808725   -9.899038  -14.156084 H         1 <1>         0.064758 
     76 H          -9.016433   -2.833273    2.574926 H         1 <1>         0.064758 
     77 H         -14.857971  -14.770876  -18.614420 H         1 <1>         0.064758 
     78 H          -2.956742   -6.541443   -2.525236 H         1 <1>         0.064758 
     79 H         -20.198663  -13.681657  -15.275533 H         1 <1>         0.093741 
     80 H          -6.265764   -5.160316    0.337574 H         1 <1>         0.093741 
     81 H         -10.916189   -3.813709    1.171263 H         1 <1>         0.064673 
     82 H         -21.452559   -9.120137  -16.585640 H         1 <1>         0.064673 
     83 H         -10.268277   -5.876291   -0.174311 H         1 <1>         0.064668 
     84 H         -21.042848  -11.019993  -18.223755 H         1 <1>         0.064668 
     85 H         -14.378824  -16.004547  -16.398108 H         1 <1>         0.067109 
     86 H          -3.214492   -5.412021   -4.844155 H         1 <1>         0.067109 
     87 H         -17.887381  -14.200660  -15.804646 H         1 <1>         0.058744 
     88 H         -18.230214  -13.186138  -17.207494 H         1 <1>         0.058744 
     89 H          -7.141559   -3.670853   -2.852764 H         1 <1>         0.058744 
     90 H          -5.543830   -3.602248   -2.134022 H         1 <1>         0.058744 
     91 H         -14.182879  -14.454419  -14.436569 H         1 <1>         0.094269 
     92 H          -5.502092   -5.684303   -5.792757 H         1 <1>         0.094269 
     93 H         -18.571684  -10.920380  -18.165451 H         1 <1>         0.058370 
     94 H         -18.602605  -10.229020  -16.531876 H         1 <1>         0.058370 
     95 H          -9.355329   -3.210876   -1.418281 H         1 <1>         0.058370 
     96 H          -9.509201   -4.769230   -2.249615 H         1 <1>         0.058370 
     97 H         -13.963624  -12.365897  -18.539931 H         1 <1>         0.210004 
     98 H          -4.588173   -8.390654   -2.073654 H         1 <1>         0.210004 
     99 H         -22.304219  -13.294087  -14.102617 H         1 <1>         0.210110 
    100 H          -6.492994   -5.161189    2.797437 H         1 <1>         0.210110 
    101 H          -9.693922   -1.604777    0.679439 H         1 <1>         0.210005 
    102 H         -19.826734   -8.725069  -14.703790 H         1 <1>         0.210005 
    103 H         -16.547175  -16.197610  -17.680952 H         1 <1>         0.210005 
    104 H          -2.724895   -4.164725   -2.744836 H         1 <1>         0.210005 
    105 H         -23.481247  -10.219954  -15.943783 H         1 <1>         0.210004 
    106 H         -10.157931   -4.944251    3.137314 H         1 <1>         0.210004 
    107 H         -12.669073  -14.679774  -17.420735 H         1 <1>         0.210111 
    108 H          -3.172831   -7.788296   -4.667276 H         1 <1>         0.210111 
    109 H         -11.687911   -3.358505   -1.016974 H         1 <1>         0.209508 
    110 H         -19.735017   -8.942689  -18.831671 H         1 <1>         0.209508 
    111 H          -7.754406   -3.399057   -8.268369 H         1 <1>         0.027936 
    112 H          -6.942967   -4.998465   -8.181060 H         1 <1>         0.027936 
    113 H          -5.998782   -3.502512   -7.946053 H         1 <1>         0.027936 
    114 H         -14.999107  -14.874177  -10.525148 H         1 <1>         0.027936 
    115 H         -13.664152  -14.468154  -11.656493 H         1 <1>         0.027936 
    116 H         -14.597511  -15.974865  -11.875742 H         1 <1>         0.027936 
    117 H          -8.497172   -4.711398   -4.730437 H         1 <1>         0.062202 
    118 H         -16.504695  -12.376211  -13.057194 H         1 <1>         0.062202 
    119 H          -9.484745   -5.304585   -7.590414 H         1 <1>         0.061777 
    120 H         -14.583765  -12.267168  -10.627087 H         1 <1>         0.061777 
    121 H          -9.132531   -7.057340   -5.108939 H         1 <1>         0.062020 
    122 H         -14.847025  -10.550958  -13.138654 H         1 <1>         0.062020 
    123 H         -11.781317   -8.976642  -12.325973 H         1 <1>         0.027753 
    124 H         -13.082234   -9.033184  -13.533207 H         1 <1>         0.027753 
    125 H          -9.798378   -9.943028   -7.060959 H         1 <1>         0.027753 
    126 H         -11.057182   -9.729853   -5.796260 H         1 <1>         0.027753 
    127 H         -13.108108   -7.765341  -12.294896 H         1 <1>         0.027753 
    128 H          -9.356278   -9.378884   -5.436139 H         1 <1>         0.027753 
    129 H         -11.389681   -6.650858   -8.036936 H         1 <1>         0.062020 
    130 H         -13.995094  -10.250991   -9.527843 H         1 <1>         0.062020 
    131 H         -12.373643   -7.642355  -10.081720 H         1 <1>         0.061766 
    132 H         -12.308013   -9.629303   -7.800858 H         1 <1>         0.061766 
@<TRIPOS>BOND
     1   35    1 1    
     2    1   39 1    
     3   36    2 1    
     4    2   40 1    
     5    3   25 1    
     6   46    3 1    
     7    4   26 1    
     8   45    4 1    
     9    5   36 1    
    10   43    5 1    
    11    6   35 1    
    12   44    6 1    
    13   27    7 1    
    14    7   97 1    
    15   28    8 1    
    16    8   98 1    
    17   29    9 1    
    18    9   99 1    
    19   30   10 1    
    20   10  100 1    
    21   32   11 1    
    22   11  102 1    
    23   31   12 1    
    24   12  101 1    
    25   33   13 1    
    26   13  103 1    
    27   34   14 1    
    28   14  104 1    
    29   37   15 1    
    30   15  106 1    
    31   38   16 1    
    32   16  105 1    
    33   42   17 1    
    34   17  107 1    
    35   41   18 1    
    36   18  108 1    
    37   19   45 1    
    38   50   19 1    
    39   20   46 1    
    40   49   20 1    
    41   48   21 1    
    42   21  110 1    
    43   47   22 1    
    44   22  109 1    
    45   49   23 2    
    46   50   24 2    
    47   25   28 1    
    48   25   44 1    
    49   25   70 1    
    50   26   27 1    
    51   26   43 1    
    52   26   69 1    
    53   33   27 1    
    54   27   71 1    
    55   34   28 1    
    56   28   72 1    
    57   29   32 1    
    58   36   29 1    
    59   29   73 1    
    60   30   31 1    
    61   35   30 1    
    62   30   74 1    
    63   31   37 1    
    64   31   76 1    
    65   32   38 1    
    66   32   75 1    
    67   42   33 1    
    68   33   77 1    
    69   41   34 1    
    70   34   78 1    
    71   35   80 1    
    72   36   79 1    
    73   39   37 1    
    74   37   81 1    
    75   40   38 1    
    76   38   82 1    
    77   39   47 1    
    78   39   83 1    
    79   40   48 1    
    80   40   84 1    
    81   46   41 1    
    82   41   86 1    
    83   45   42 1    
    84   42   85 1    
    85   43   87 1    
    86   43   88 1    
    87   44   89 1    
    88   44   90 1    
    89   45   91 1    
    90   46   92 1    
    91   47   95 1    
    92   47   96 1    
    93   48   93 1    
    94   48   94 1    
    95   51   49 1    
    96   52   50 1    
    97   51   53 1    
    98   56   51 2    
    99   52   54 1    
   100   55   52 2    
   101   53  111 1    
   102   53  112 1    
   103   53  113 1    
   104   54  114 1    
   105   54  115 1    
   106   54  116 1    
   107   57   55 1    
   108   55  118 1    
   109   58   56 1    
   110   56  117 1    
   111   59   57 2    
   112   57  120 1    
   113   60   58 2    
   114   58  119 1    
   115   61   59 1    
   116   59  122 1    
   117   62   60 1    
   118   60  121 1    
   119   61   63 1    
   120   65   61 2    
   121   62   64 1    
   122   66   62 2    
   123   63  123 1    
   124   63  124 1    
   125   63  127 1    
   126   64  125 1    
   127   64  126 1    
   128   64  128 1    
   129   68   65 1    
   130   65  130 1    
   131   67   66 1    
   132   66  129 1    
   133   67   68 2    
   134   67  132 1    
   135   68  131 1    
@<TRIPOS>SUBSTRUCTURE
     1 ****       10 TEMP              0 ****  ****    0 ROOT 
@<TRIPOS>NORMAL
@<TRIPOS>FF_PBC
FORCE_FIELD_SETUP_FEATURE Force Field Setup information
v1.0  0 0.000000 0.000000 0.000000 0.000000 0.000000 0.000000 NONE 0 0 0 0 1 0 0 0 0 0 0 0 0
