@<TRIPOS>MOLECULE
MOL006956
   40    41     1     1     0
SMALL
GASTEIGER


@<TRIPOS>ATOM
      1 C          -2.219989   -3.256368   -1.055337 C.ar      1 <1>        -0.031681 
      2 C          -1.403872   -2.145343   -0.510844 C.ar      1 <1>        -0.056071 
      3 C          -1.814566   -1.464513    0.661962 C.ar      1 <1>        -0.044984 
      4 C          -3.069544   -1.870974    1.340408 C.ar      1 <1>        -0.056071 
      5 C          -3.846106   -2.925778    0.824529 C.ar      1 <1>        -0.031681 
      6 C          -3.423604   -3.643536   -0.400163 C.ar      1 <1>         0.072598 
      7 C          -0.973308   -0.314778    1.226912 C.3       1 <1>        -0.000655 
      8 C          -1.433982    1.026598    0.603192 C.3       1 <1>         0.103358 
      9 N          -1.439566    0.956559   -0.857036 N.am      1 <1>        -0.302161 
     10 C          -0.433073    1.471547   -1.592747 C.2       1 <1>         0.233963 
     11 C           0.750209    2.132124   -0.922890 C.3       1 <1>         0.099650 
     12 N           0.429668    2.655678    0.403238 N.am      1 <1>        -0.302457 
     13 C          -0.583719    2.153293    1.137668 C.2       1 <1>         0.234267 
     14 C           1.954760    1.144110   -0.955135 C.3       1 <1>        -0.023630 
     15 C           3.186777    1.593832   -0.110652 C.3       1 <1>        -0.044591 
     16 C           3.050925    1.176570    1.383747 C.3       1 <1>        -0.062595 
     17 C           4.493025    0.972333   -0.683359 C.3       1 <1>        -0.062595 
     18 O          -0.836523    2.597203    2.246134 O.2       1 <1>        -0.273751 
     19 O          -0.453327    1.410757   -2.811624 O.2       1 <1>        -0.273762 
     20 O          -4.216474   -4.685997   -0.886703 O.3       1 <1>        -0.359832 
     21 H          -1.890091   -3.766705   -1.953742 H         1 <1>         0.064328 
     22 H          -0.489792   -1.855744   -1.019202 H         1 <1>         0.062109 
     23 H          -3.393053   -1.353833    2.237770 H         1 <1>         0.062109 
     24 H          -4.763552   -3.222090    1.321511 H         1 <1>         0.064328 
     25 H          -1.086342   -0.278017    2.322418 H         1 <1>         0.033588 
     26 H           0.088585   -0.496169    1.014543 H         1 <1>         0.033588 
     27 H          -2.467371    1.221002    0.939626 H         1 <1>         0.059770 
     28 H          -2.205688    0.504811   -1.320929 H         1 <1>         0.149518 
     29 H           1.012372    3.001921   -1.551498 H         1 <1>         0.059449 
     30 H           0.973073    3.412914    0.774389 H         1 <1>         0.149507 
     31 H           1.646714    0.141988   -0.626379 H         1 <1>         0.029028 
     32 H           2.248626    1.048143   -2.014033 H         1 <1>         0.029028 
     33 H           3.284992    2.691306   -0.177135 H         1 <1>         0.029618 
     34 H           3.908510    1.555214    1.961422 H         1 <1>         0.023234 
     35 H           2.136458    1.566361    1.848634 H         1 <1>         0.023234 
     36 H           3.033400    0.079510    1.473901 H         1 <1>         0.023234 
     37 H           5.363625    1.274745   -0.080477 H         1 <1>         0.023234 
     38 H           4.664831    1.308708   -1.717959 H         1 <1>         0.023234 
     39 H           4.428419   -0.126806   -0.679182 H         1 <1>         0.023234 
     40 H          -3.881296   -5.094479   -1.676674 H         1 <1>         0.217313 
@<TRIPOS>BOND
     1    1    2 1    
     2    1    6 2    
     3    1   21 1    
     4    2    3 2    
     5    2   22 1    
     6    3    4 1    
     7    3    7 1    
     8    4    5 2    
     9    4   23 1    
    10    5    6 1    
    11    5   24 1    
    12    6   20 1    
    13    7    8 1    
    14    7   25 1    
    15    7   26 1    
    16    8    9 1    
    17    8   13 1    
    18    8   27 1    
    19    9   10 1    
    20    9   28 1    
    21   10   11 1    
    22   10   19 2    
    23   11   12 1    
    24   11   14 1    
    25   11   29 1    
    26   12   13 1    
    27   12   30 1    
    28   13   18 2    
    29   14   15 1    
    30   14   31 1    
    31   14   32 1    
    32   15   16 1    
    33   15   17 1    
    34   15   33 1    
    35   16   34 1    
    36   16   35 1    
    37   16   36 1    
    38   17   37 1    
    39   17   38 1    
    40   17   39 1    
    41   20   40 1    
@<TRIPOS>SUBSTRUCTURE
     1 ****        1 TEMP              0 ****  ****    0 ROOT 
@<TRIPOS>NORMAL
@<TRIPOS>FF_PBC
FORCE_FIELD_SETUP_FEATURE Force Field Setup information
v1.0  0 0.000000 0.000000 0.000000 0.000000 0.000000 0.000000 NONE 0 0 0 0 1 0 0 0 0 0 0 0 0
