@<TRIPOS>MOLECULE
MOL000935
   39    41     1     1     0
SMALL
GASTEIGER


@<TRIPOS>ATOM
      1 C           2.496770    1.440818    0.110608 C.3       1 <1>        -0.042560 
      2 C           3.112583    0.058669    0.448401 C.3       1 <1>        -0.031186 
      3 C           2.029286   -0.846209   -0.056197 C.2       1 <1>        -0.072791 
      4 C           0.881530   -0.215595   -0.331319 C.2       1 <1>        -0.063331 
      5 C          -0.338127   -0.896749   -0.933482 C.3       1 <1>        -0.010638 
      6 C          -1.568366   -0.935544    0.012232 C.3       1 <1>        -0.028294 
      7 C          -1.927885    0.099340    1.120757 C.3       1 <1>        -0.048887 
      8 C          -1.314801    1.528538    1.201015 C.3       1 <1>        -0.049634 
      9 C           0.229602    1.602445    1.351484 C.3       1 <1>        -0.037325 
     10 C           0.951068    1.247817    0.018299 C.3       1 <1>        -0.016500 
     11 C          -1.757132   -0.529833   -1.472736 C.3       1 <1>        -0.024718 
     12 C           2.343338   -2.315833   -0.198176 C.3       1 <1>        -0.043516 
     13 C           0.722396    0.792899    2.585104 C.3       1 <1>        -0.061874 
     14 C          -2.480787   -1.624714   -2.311602 C.3       1 <1>        -0.058989 
     15 C          -2.120926    0.912680   -1.911391 C.3       1 <1>        -0.058989 
     16 H           2.807452    2.225804    0.818139 H         1 <1>         0.027408 
     17 H           2.875084    1.726816   -0.887591 H         1 <1>         0.027408 
     18 H           4.068905   -0.107369   -0.074319 H         1 <1>         0.031016 
     19 H           3.264307   -0.105875    1.524698 H         1 <1>         0.031016 
     20 H          -0.074428   -1.873244   -1.364058 H         1 <1>         0.035392 
     21 H          -1.887746   -1.963834    0.251512 H         1 <1>         0.031202 
     22 H          -3.023218    0.211282    1.065280 H         1 <1>         0.026837 
     23 H          -1.713869   -0.404192    2.076770 H         1 <1>         0.026837 
     24 H          -1.634233    2.170529    0.372752 H         1 <1>         0.026812 
     25 H          -1.748529    1.993689    2.104170 H         1 <1>         0.026812 
     26 H           0.462166    2.664046    1.556263 H         1 <1>         0.030384 
     27 H           0.604404    1.909705   -0.785020 H         1 <1>         0.034845 
     28 H           1.466379   -2.943226    0.016787 H         1 <1>         0.027444 
     29 H           3.134795   -2.604676    0.509836 H         1 <1>         0.027444 
     30 H           2.695028   -2.515952   -1.221015 H         1 <1>         0.027444 
     31 H           0.081607    0.994818    3.457191 H         1 <1>         0.023259 
     32 H           0.707895   -0.288876    2.387013 H         1 <1>         0.023259 
     33 H           1.744005    1.087925    2.863869 H         1 <1>         0.023259 
     34 H          -3.566719   -1.457646   -2.249750 H         1 <1>         0.023525 
     35 H          -2.167977   -1.539849   -3.363161 H         1 <1>         0.023525 
     36 H          -2.272898   -2.653921   -1.981211 H         1 <1>         0.023525 
     37 H          -1.302706    1.627421   -1.831695 H         1 <1>         0.023525 
     38 H          -2.399036    0.902213   -2.975759 H         1 <1>         0.023525 
     39 H          -2.999122    1.263386   -1.350344 H         1 <1>         0.023525 
@<TRIPOS>BOND
     1    1    2 1    
     2    1   10 1    
     3    1   16 1    
     4    1   17 1    
     5    2    3 1    
     6    2   18 1    
     7    2   19 1    
     8    3    4 2    
     9    3   12 1    
    10    4    5 1    
    11    4   10 1    
    12    5    6 1    
    13    5   11 1    
    14    5   20 1    
    15    6    7 1    
    16    6   11 1    
    17    6   21 1    
    18    7    8 1    
    19    7   22 1    
    20    7   23 1    
    21    8    9 1    
    22    8   24 1    
    23    8   25 1    
    24    9   10 1    
    25    9   13 1    
    26    9   26 1    
    27   10   27 1    
    28   11   14 1    
    29   11   15 1    
    30   12   28 1    
    31   12   29 1    
    32   12   30 1    
    33   13   31 1    
    34   13   32 1    
    35   13   33 1    
    36   14   34 1    
    37   14   35 1    
    38   14   36 1    
    39   15   37 1    
    40   15   38 1    
    41   15   39 1    
@<TRIPOS>SUBSTRUCTURE
     1 ****        1 TEMP              0 ****  ****    0 ROOT 
@<TRIPOS>NORMAL
@<TRIPOS>FF_PBC
FORCE_FIELD_SETUP_FEATURE Force Field Setup information
v1.0  0 0.000000 0.000000 0.000000 0.000000 0.000000 0.000000 NONE 0 0 0 0 1 0 0 0 0 0 0 0 0
