@<TRIPOS>MOLECULE
MOL002288
   51    54     1     1     0
SMALL
GASTEIGER


@<TRIPOS>ATOM
      1 C           0.698849   -1.412975    0.138487 C.ar      1 <1>         0.063340 
      2 C           0.804671   -2.903350   -0.180744 C.ar      1 <1>         0.037997 
      3 C          -0.422328   -3.705501   -0.393873 C.ar      1 <1>        -0.020261 
      4 C          -1.789357   -3.062405   -0.299380 C.ar      1 <1>         0.075741 
      5 C          -1.903688   -1.616128    0.012157 C.ar      1 <1>        -0.001058 
      6 C          -0.632070   -0.767846    0.239465 C.ar      1 <1>         0.093388 
      7 O          -2.924671   -3.848271   -0.507264 O.3       1 <1>        -0.359729 
      8 O          -0.704055    0.593201    0.544482 O.3       1 <1>        -0.311739 
      9 C          -1.656984    1.441566   -0.112705 C.3       1 <1>         0.193671 
     10 C          -1.247922    2.907736    0.177276 C.3       1 <1>         0.134509 
     11 C          -2.326732    3.879658   -0.359724 C.3       1 <1>         0.114074 
     12 C          -3.721586    3.494968    0.189327 C.3       1 <1>         0.111896 
     13 C          -4.002679    1.996035   -0.097620 C.3       1 <1>         0.113017 
     14 O          -2.955543    1.168791    0.445914 O.3       1 <1>        -0.340168 
     15 C          -5.332867    1.559094    0.566654 C.3       1 <1>         0.073015 
     16 O          -6.397655    2.421416    0.118845 O.3       1 <1>        -0.392366 
     17 O          -4.690568    4.344314   -0.454618 O.3       1 <1>        -0.386488 
     18 O          -1.979611    5.218496    0.042323 O.3       1 <1>        -0.386401 
     19 O           0.016690    3.201265   -0.451020 O.3       1 <1>        -0.384091 
     20 C           2.168527   -3.547149   -0.277131 C.2       1 <1>         0.194755 
     21 C           1.966874   -0.615202    0.345398 C.2       1 <1>         0.199449 
     22 C           3.320357   -1.276598    0.232564 C.ar      1 <1>         0.062824 
     23 C           3.419699   -2.724746   -0.068519 C.ar      1 <1>         0.035809 
     24 O           1.928587    0.575461    0.607132 O.2       1 <1>        -0.286435 
     25 O           2.259641   -4.738126   -0.526368 O.2       1 <1>        -0.286608 
     26 C           4.793237   -3.387333   -0.169911 C.ar      1 <1>        -0.047151 
     27 C           6.029129   -2.593173    0.025102 C.ar      1 <1>        -0.047307 
     28 C           5.926345   -1.097094    0.328658 C.ar      1 <1>        -0.028282 
     29 C           4.604387   -0.440765    0.431987 C.ar      1 <1>         0.084321 
     30 O           4.545024    0.926724    0.709689 O.3       1 <1>        -0.359094 
     31 C           7.394155   -3.276231   -0.078812 C.3       1 <1>        -0.039609 
     32 H          -0.351912   -4.763520   -0.620588 H         1 <1>         0.065049 
     33 H          -2.884790   -1.167675    0.081666 H         1 <1>         0.066931 
     34 H          -3.744143   -3.382971   -0.383996 H         1 <1>         0.217315 
     35 H          -1.617507    1.265317   -1.201040 H         1 <1>         0.094160 
     36 H          -1.170036    3.019783    1.272613 H         1 <1>         0.067108 
     37 H          -2.340013    3.810217   -1.461274 H         1 <1>         0.064758 
     38 H          -3.722988    3.666500    1.279304 H         1 <1>         0.064673 
     39 H          -4.097623    1.848715   -1.186980 H         1 <1>         0.064668 
     40 H          -5.536044    0.507845    0.299468 H         1 <1>         0.058370 
     41 H          -5.224169    1.624790    1.662483 H         1 <1>         0.058370 
     42 H          -7.244728    2.186873    0.489458 H         1 <1>         0.209508 
     43 H          -5.584560    4.124352   -0.200899 H         1 <1>         0.210004 
     44 H          -2.627913    5.853079   -0.250725 H         1 <1>         0.210005 
     45 H           0.296991    4.096190   -0.280810 H         1 <1>         0.210111 
     46 H           4.864815   -4.447571   -0.386921 H         1 <1>         0.062744 
     47 H           6.822658   -0.504221    0.472971 H         1 <1>         0.064604 
     48 H           3.653187    1.261659    0.743282 H         1 <1>         0.217340 
     49 H           8.207517   -2.535224   -0.089602 H         1 <1>         0.027755 
     50 H           7.526434   -3.943136    0.786075 H         1 <1>         0.027755 
     51 H           7.441908   -3.869207   -1.004489 H         1 <1>         0.027755 
@<TRIPOS>BOND
     1    1    2 2    
     2    1    6 1    
     3    1   21 1    
     4    2    3 1    
     5    2   20 1    
     6    3    4 2    
     7    3   32 1    
     8    4    5 1    
     9    4    7 1    
    10    5    6 2    
    11    5   33 1    
    12    6    8 1    
    13    7   34 1    
    14    8    9 1    
    15    9   10 1    
    16    9   14 1    
    17    9   35 1    
    18   10   11 1    
    19   10   19 1    
    20   10   36 1    
    21   11   12 1    
    22   11   18 1    
    23   11   37 1    
    24   12   13 1    
    25   12   17 1    
    26   12   38 1    
    27   13   14 1    
    28   13   15 1    
    29   13   39 1    
    30   15   16 1    
    31   15   40 1    
    32   15   41 1    
    33   16   42 1    
    34   17   43 1    
    35   18   44 1    
    36   19   45 1    
    37   20   23 1    
    38   20   25 2    
    39   21   22 1    
    40   21   24 2    
    41   22   23 1    
    42   22   29 2    
    43   23   26 2    
    44   26   27 1    
    45   26   46 1    
    46   27   28 2    
    47   27   31 1    
    48   28   29 1    
    49   28   47 1    
    50   29   30 1    
    51   30   48 1    
    52   31   49 1    
    53   31   50 1    
    54   31   51 1    
@<TRIPOS>SUBSTRUCTURE
     1 ****        1 TEMP              0 ****  ****    0 ROOT 
@<TRIPOS>NORMAL
@<TRIPOS>FF_PBC
FORCE_FIELD_SETUP_FEATURE Force Field Setup information
v1.0  0 0.000000 0.000000 0.000000 0.000000 0.000000 0.000000 NONE 0 0 0 0 1 0 0 0 0 0 0 0 0
