@<TRIPOS>MOLECULE
MOL005000
   46    48     1     1     0
SMALL
GASTEIGER


@<TRIPOS>ATOM
      1 O           1.291798    2.693763    0.830692 O.3       1 <1>        -0.315268 
      2 O          -3.574682    2.552657    0.238133 O.3       1 <1>        -0.347465 
      3 O          -0.863965   -1.343415   -1.045633 O.3       1 <1>        -0.358673 
      4 O           1.790015   -1.062737   -0.626475 O.2       1 <1>        -0.286389 
      5 O           8.114412   -1.187890    0.001693 O.3       1 <1>        -0.359832 
      6 C          -2.258253    0.617970   -0.403253 C.ar      1 <1>         0.016824 
      7 C           0.219679    0.644965   -0.117269 C.ar      1 <1>         0.082793 
      8 C          -0.936468   -0.046306   -0.526758 C.ar      1 <1>         0.091803 
      9 C           0.136753    2.014534    0.429407 C.ar      1 <1>         0.098084 
     10 C          -3.524370   -0.127696   -0.843093 C.3       1 <1>        -0.004331 
     11 C          -2.336926    1.921793    0.117263 C.ar      1 <1>         0.084214 
     12 C           1.607342    0.065692   -0.197183 C.2       1 <1>         0.200581 
     13 C          -1.108700    2.632139    0.545099 C.ar      1 <1>        -0.000030 
     14 C           2.717516    0.909281    0.259964 C.2       1 <1>         0.052653 
     15 C          -4.014679   -0.942108    0.331904 C.2       1 <1>        -0.080815 
     16 C           4.125154    0.362863    0.188185 C.ar      1 <1>        -0.012137 
     17 C           2.515609    2.144810    0.737751 C.2       1 <1>         0.058255 
     18 C          -4.116275   -2.279910    0.425776 C.2       1 <1>        -0.079306 
     19 C           4.654846   -0.358896    1.264072 C.ar      1 <1>        -0.051421 
     20 C           4.945917    0.591768   -1.024764 C.ar      1 <1>        -0.051421 
     21 C          -4.668139   -2.922099    1.682337 C.3       1 <1>        -0.044040 
     22 C          -3.720128   -3.256685   -0.662446 C.3       1 <1>        -0.044040 
     23 C           6.036162   -0.890383    1.188444 C.ar      1 <1>        -0.031363 
     24 C           6.250559    0.087845   -1.094007 C.ar      1 <1>        -0.031363 
     25 C          -3.815012    3.575956   -0.741949 C.3       1 <1>         0.043040 
     26 C           6.816133   -0.677016    0.047213 C.ar      1 <1>         0.072617 
     27 H          -4.316492    0.586580   -1.114621 H         1 <1>         0.035721 
     28 H          -3.309100   -0.704248   -1.751133 H         1 <1>         0.035721 
     29 H          -1.176608    3.634815    0.950937 H         1 <1>         0.066964 
     30 H          -4.317377   -0.332862    1.185081 H         1 <1>         0.057473 
     31 H           3.363478    2.744134    1.069904 H         1 <1>         0.089749 
     32 H           4.056573   -0.530105    2.153258 H         1 <1>         0.062443 
     33 H           4.531599    1.150021   -1.857738 H         1 <1>         0.062443 
     34 H           0.014354   -1.712253   -1.060562 H         1 <1>         0.217354 
     35 H          -5.023366   -2.193865    2.426968 H         1 <1>         0.027427 
     36 H          -5.514823   -3.572536    1.415351 H         1 <1>         0.027427 
     37 H          -3.886585   -3.535978    2.154742 H         1 <1>         0.027427 
     38 H          -2.948269   -2.882682   -1.345756 H         1 <1>         0.027427 
     39 H          -3.318240   -4.178068   -0.214342 H         1 <1>         0.027427 
     40 H          -4.614677   -3.518853   -1.246882 H         1 <1>         0.027427 
     41 H           6.449110   -1.449131    2.021329 H         1 <1>         0.064338 
     42 H           6.845635    0.258784   -1.985152 H         1 <1>         0.064338 
     43 H          -3.779993    3.155518   -1.759088 H         1 <1>         0.052870 
     44 H          -3.079958    4.391236   -0.660273 H         1 <1>         0.052870 
     45 H          -4.818850    3.989724   -0.566251 H         1 <1>         0.052870 
     46 H           8.561094   -1.019425   -0.819875 H         1 <1>         0.217313 
@<TRIPOS>BOND
     1    1    9 1    
     2   17    1 1    
     3   11    2 1    
     4    2   25 1    
     5    8    3 1    
     6    3   34 1    
     7   12    4 2    
     8   26    5 1    
     9    5   46 1    
    10    8    6 1    
    11    6   10 1    
    12    6   11 2    
    13    7    8 2    
    14    7    9 1    
    15   12    7 1    
    16    9   13 2    
    17   10   15 1    
    18   10   27 1    
    19   10   28 1    
    20   13   11 1    
    21   14   12 1    
    22   13   29 1    
    23   16   14 1    
    24   14   17 2    
    25   15   18 2    
    26   15   30 1    
    27   19   16 2    
    28   16   20 1    
    29   17   31 1    
    30   18   21 1    
    31   18   22 1    
    32   23   19 1    
    33   19   32 1    
    34   20   24 2    
    35   20   33 1    
    36   21   35 1    
    37   21   36 1    
    38   21   37 1    
    39   22   38 1    
    40   22   39 1    
    41   22   40 1    
    42   23   26 2    
    43   23   41 1    
    44   24   26 1    
    45   24   42 1    
    46   25   43 1    
    47   25   44 1    
    48   25   45 1    
@<TRIPOS>SUBSTRUCTURE
     1 ****        3 TEMP              0 ****  ****    0 ROOT 
@<TRIPOS>NORMAL
@<TRIPOS>FF_PBC
FORCE_FIELD_SETUP_FEATURE Force Field Setup information
v1.0  0 0.000000 0.000000 0.000000 0.000000 0.000000 0.000000 NONE 0 0 0 0 1 0 0 0 0 0 0 0 0
