@<TRIPOS>MOLECULE
MOL004944
   19    19     1     1     0
SMALL
GASTEIGER


@<TRIPOS>ATOM
      1 C           0.097250    0.203684   -0.436006 C.3       1 <1>         0.065884 
      2 C          -1.094027   -0.770982   -0.244689 C.3       1 <1>        -0.023922 
      3 C          -2.002963    0.435782    0.091316 C.3       1 <1>        -0.047865 
      4 C          -0.882381    1.403417   -0.357659 C.3       1 <1>        -0.023922 
      5 O           0.790576    0.084048   -1.691048 O.3       1 <1>        -0.388583 
      6 C           1.103530    0.187268    0.747141 C.3       1 <1>        -0.026846 
      7 C           2.007025   -1.073694    0.720623 C.3       1 <1>        -0.062677 
      8 H          -0.998211   -1.501116    0.573960 H         1 <1>         0.029283 
      9 H          -1.392730   -1.266886   -1.182096 H         1 <1>         0.029283 
     10 H          -2.931193    0.495540   -0.500605 H         1 <1>         0.026705 
     11 H          -2.211670    0.514041    1.171399 H         1 <1>         0.026705 
     12 H          -0.624003    2.180883    0.379191 H         1 <1>         0.029283 
     13 H          -1.091163    1.849537   -1.343215 H         1 <1>         0.029283 
     14 H           0.214314    0.091779   -2.447091 H         1 <1>         0.210158 
     15 H           1.743494    1.080123    0.661763 H         1 <1>         0.029016 
     16 H           0.566465    0.237888    1.708872 H         1 <1>         0.029016 
     17 H           2.718930   -1.043295    1.560563 H         1 <1>         0.023065 
     18 H           1.407254   -1.992117    0.806729 H         1 <1>         0.023065 
     19 H           2.579503   -1.115901   -0.218847 H         1 <1>         0.023065 
@<TRIPOS>BOND
     1    1    2 1    
     2    1    4 1    
     3    1    5 1    
     4    1    6 1    
     5    2    3 1    
     6    2    8 1    
     7    2    9 1    
     8    3    4 1    
     9    3   10 1    
    10    3   11 1    
    11    4   12 1    
    12    4   13 1    
    13    5   14 1    
    14    6    7 1    
    15    6   15 1    
    16    6   16 1    
    17    7   17 1    
    18    7   18 1    
    19    7   19 1    
@<TRIPOS>SUBSTRUCTURE
     1 ****        1 TEMP              0 ****  ****    0 ROOT 
@<TRIPOS>NORMAL
@<TRIPOS>FF_PBC
FORCE_FIELD_SETUP_FEATURE Force Field Setup information
v1.0  0 0.000000 0.000000 0.000000 0.000000 0.000000 0.000000 NONE 0 0 0 0 1 0 0 0 0 0 0 0 0
