@<TRIPOS>MOLECULE
MOL012983
  124   132     1     1     0
SMALL
GASTEIGER


@<TRIPOS>ATOM
      1 C          -2.066732   -0.969429    0.956007 C.3       1 <1>        -0.025470 
      2 C          -2.172772   -2.211215    0.022151 C.3       1 <1>         0.067174 
      3 C          -1.574958   -1.969820   -1.410122 C.3       1 <1>        -0.005230 
      4 C          -0.148217   -1.323170   -1.217140 C.3       1 <1>        -0.027836 
      5 C          -0.072256    0.018860   -0.402616 C.3       1 <1>        -0.025246 
      6 C          -0.649859   -0.315784    1.009355 C.3       1 <1>        -0.044721 
      7 C           0.857143   -1.286820   -2.399524 C.3       1 <1>        -0.048617 
      8 C           2.346690   -1.191118   -1.894852 C.3       1 <1>        -0.046476 
      9 C           2.614574   -0.487589   -0.501602 C.3       1 <1>        -0.020557 
     10 C           1.427739    0.531452   -0.381937 C.3       1 <1>        -0.029356 
     11 C           4.012791    0.293035   -0.441918 C.3       1 <1>         0.008082 
     12 C           3.949895    1.847116   -0.688222 C.3       1 <1>        -0.022160 
     13 C           2.819329    2.569670    0.133329 C.3       1 <1>        -0.048815 
     14 C           1.735753    1.605863    0.688833 C.3       1 <1>        -0.048911 
     15 C           6.032576    1.023302    0.173405 C.3       1 <1>         0.176771 
     16 C           5.348887    2.334586   -0.195069 C.3       1 <1>         0.047773 
     17 C           2.708801   -1.561398    0.643459 C.3       1 <1>        -0.058701 
     18 C          -0.907836    1.193110   -1.048578 C.3       1 <1>        -0.059019 
     19 O          -3.570480   -2.571854   -0.108236 O.3       1 <1>        -0.344881 
     20 O           6.317051    0.219564   -0.970237 O.3       1 <1>        -0.347601 
     21 C           5.070380   -0.307054   -1.420949 C.3       1 <1>         0.057503 
     22 C          -1.454155   -3.376639   -2.093639 C.3       1 <1>        -0.057181 
     23 C          -4.016793   -3.614057    0.784772 C.3       1 <1>         0.188595 
     24 O          -3.559701   -3.387569    2.130644 O.3       1 <1>        -0.340513 
     25 C          -3.864293   -4.467841    3.041495 C.3       1 <1>         0.113005 
     26 C          -5.380708   -4.834569    3.058206 C.3       1 <1>         0.111906 
     27 C          -5.948634   -4.970776    1.618644 C.3       1 <1>         0.114429 
     28 C          -5.568129   -3.719140    0.795124 C.3       1 <1>         0.140625 
     29 O          -6.243453   -2.628656    1.467409 O.3       1 <1>        -0.337761 
     30 C          -6.178368   -1.372270    0.776725 C.3       1 <1>         0.188431 
     31 O          -6.746303   -1.551948   -0.532863 O.3       1 <1>        -0.343067 
     32 C          -6.775322   -0.337027   -1.305462 C.3       1 <1>         0.087307 
     33 C          -7.072963    0.990384    0.834928 C.3       1 <1>         0.113972 
     34 C          -7.019247   -0.357442    1.594629 C.3       1 <1>         0.134123 
     35 C          -7.629427    0.744611   -0.592383 C.3       1 <1>         0.109478 
     36 C          -7.369166   -0.691962   -2.691189 C.3       1 <1>        -0.036060 
     37 O          -7.868482    1.952716    1.549676 O.3       1 <1>        -0.386402 
     38 O          -5.459595   -6.158236    0.967664 O.3       1 <1>        -0.386391 
     39 O          -8.371544   -0.825847    1.771670 O.3       1 <1>        -0.384104 
     40 O          -7.593256    1.962559   -1.361712 O.3       1 <1>        -0.386579 
     41 C           4.893845    0.248216    0.857435 C.3       1 <1>         0.010319 
     42 C          -2.934953   -5.697423    2.851798 C.3       1 <1>         0.073015 
     43 O          -3.024711   -6.540960    4.018730 O.3       1 <1>        -0.392366 
     44 O          -5.632993   -6.077469    3.742420 O.3       1 <1>        -0.386488 
     45 C          -2.557421   -1.162818   -2.317036 C.3       1 <1>        -0.057181 
     46 C           6.466575    3.030882   -1.005519 C.3       1 <1>         0.101308 
     47 O           7.250609    1.510170    0.730115 O.3       1 <1>        -0.342061 
     48 C           7.719528    2.479291   -0.243761 C.3       1 <1>         0.093456 
     49 C           8.314296    3.735033    0.432996 C.3       1 <1>         0.005317 
     50 C           7.822380    4.858545   -0.508373 C.3       1 <1>         0.090037 
     51 O           6.467681    4.451605   -0.764361 O.3       1 <1>        -0.364501 
     52 H           8.427912    2.013210   -0.948487 H         1 <1>         0.062661 
     53 C           6.488339    2.788032   -2.539564 C.3       1 <1>        -0.032902 
     54 C           7.924508    6.317536    0.029615 C.3       1 <1>         0.086603 
     55 C           7.458033    7.291519   -1.092036 C.3       1 <1>        -0.033893 
     56 O           9.311229    6.563262    0.333428 O.3       1 <1>        -0.386561 
     57 C           7.055592    6.538750    1.301496 C.3       1 <1>        -0.033893 
     58 H          -2.336725   -1.267332    1.981145 H         1 <1>         0.029047 
     59 H          -2.830991   -0.246472    0.650324 H         1 <1>         0.029047 
     60 H          -1.584483   -3.019731    0.492574 H         1 <1>         0.060224 
     61 H           0.300405   -2.110030   -0.617634 H         1 <1>         0.031210 
     62 H          -0.721231    0.593357    1.624617 H         1 <1>         0.027149 
     63 H           0.026524   -1.005626    1.534160 H         1 <1>         0.027149 
     64 H           0.788395   -2.181238   -3.035295 H         1 <1>         0.026846 
     65 H           0.592243   -0.436267   -3.046097 H         1 <1>         0.026846 
     66 H           2.835522   -0.643656   -2.712106 H         1 <1>         0.027088 
     67 H           2.791420   -2.199385   -1.869870 H         1 <1>         0.027088 
     68 H           1.516136    1.075791   -1.338067 H         1 <1>         0.031156 
     69 H           3.813226    2.026599   -1.765561 H         1 <1>         0.031230 
     70 H           2.340326    3.302183   -0.539414 H         1 <1>         0.026833 
     71 H           3.153004    3.147208    1.008934 H         1 <1>         0.026833 
     72 H           0.866692    2.221843    0.963383 H         1 <1>         0.026837 
     73 H           2.061027    1.117419    1.616775 H         1 <1>         0.026837 
     74 H           5.296238    2.906819    0.745818 H         1 <1>         0.038450 
     75 H           2.800361   -1.094530    1.631818 H         1 <1>         0.023534 
     76 H           1.900264   -2.283568    0.743663 H         1 <1>         0.023534 
     77 H           3.598330   -2.185650    0.480164 H         1 <1>         0.023534 
     78 H          -0.487503    2.189158   -0.853261 H         1 <1>         0.023525 
     79 H          -0.937841    1.100731   -2.141549 H         1 <1>         0.023525 
     80 H          -1.934178    1.280286   -0.683641 H         1 <1>         0.023525 
     81 H           5.133433   -1.402868   -1.342226 H         1 <1>         0.056658 
     82 H           4.961487   -0.027580   -2.477667 H         1 <1>         0.056658 
     83 H          -1.225462   -3.288508   -3.166208 H         1 <1>         0.023587 
     84 H          -2.406315   -3.923842   -2.017574 H         1 <1>         0.023587 
     85 H          -0.680049   -4.003675   -1.626016 H         1 <1>         0.023587 
     86 H          -3.586509   -4.539751    0.370733 H         1 <1>         0.093760 
     87 H          -3.602225   -4.075321    4.038042 H         1 <1>         0.064668 
     88 H          -5.924386   -4.018628    3.568082 H         1 <1>         0.064673 
     89 H          -7.051377   -5.030713    1.678668 H         1 <1>         0.064768 
     90 H          -5.941607   -3.856993   -0.233198 H         1 <1>         0.067477 
     91 H          -5.141045   -1.011477    0.725170 H         1 <1>         0.093753 
     92 H          -5.750670    0.045105   -1.459404 H         1 <1>         0.062075 
     93 H          -6.059099    1.413268    0.744592 H         1 <1>         0.064757 
     94 H          -6.555311   -0.198853    2.583855 H         1 <1>         0.067095 
     95 H          -8.664289    0.371318   -0.518439 H         1 <1>         0.064584 
     96 H          -7.406727    0.197021   -3.339899 H         1 <1>         0.025536 
     97 H          -6.744111   -1.457889   -3.175894 H         1 <1>         0.025536 
     98 H          -8.386342   -1.096480   -2.577545 H         1 <1>         0.025536 
     99 H          -8.751598    1.634927    1.706967 H         1 <1>         0.210005 
    100 H          -5.680013   -6.939042    1.469679 H         1 <1>         0.210005 
    101 H          -8.388208   -1.689959    2.171791 H         1 <1>         0.210110 
    102 H          -8.095517    2.657947   -0.947124 H         1 <1>         0.210002 
    103 H           5.280801   -0.733219    1.170237 H         1 <1>         0.032341 
    104 H           4.477157    0.773180    1.730570 H         1 <1>         0.032341 
    105 H          -3.202387   -6.268869    1.951502 H         1 <1>         0.058370 
    106 H          -1.899376   -5.333932    2.739222 H         1 <1>         0.058370 
    107 H          -2.476668   -7.319213    3.962364 H         1 <1>         0.209508 
    108 H          -5.231374   -6.106321    4.606581 H         1 <1>         0.210004 
    109 H          -2.038321   -0.823756   -3.225774 H         1 <1>         0.023587 
    110 H          -3.404131   -1.791833   -2.633395 H         1 <1>         0.023587 
    111 H          -3.010499   -0.303790   -1.816485 H         1 <1>         0.023587 
    112 H           9.410280    3.699893    0.540852 H         1 <1>         0.031705 
    113 H           7.855833    3.826201    1.428237 H         1 <1>         0.031705 
    114 H           8.418910    4.803161   -1.434421 H         1 <1>         0.062545 
    115 H           5.561010    3.179221   -2.980660 H         1 <1>         0.025825 
    116 H           7.329744    3.327235   -2.996908 H         1 <1>         0.025825 
    117 H           6.593519    1.731416   -2.808600 H         1 <1>         0.025825 
    118 H           6.410776    7.084850   -1.363252 H         1 <1>         0.025796 
    119 H           7.533429    8.338808   -0.761036 H         1 <1>         0.025796 
    120 H           8.083977    7.171952   -1.990575 H         1 <1>         0.025796 
    121 H           9.471868    7.446777    0.648605 H         1 <1>         0.210247 
    122 H           6.022682    6.201506    1.125954 H         1 <1>         0.025796 
    123 H           7.468783    5.994710    2.162128 H         1 <1>         0.025796 
    124 H           7.031054    7.606024    1.568122 H         1 <1>         0.025796 
@<TRIPOS>BOND
     1    1    2 1    
     2    1    6 1    
     3    1   58 1    
     4    1   59 1    
     5    2    3 1    
     6    2   19 1    
     7    2   60 1    
     8    3    4 1    
     9    3   22 1    
    10    3   45 1    
    11    4    5 1    
    12    4    7 1    
    13    4   61 1    
    14    5    6 1    
    15    5   10 1    
    16    5   18 1    
    17    6   62 1    
    18    6   63 1    
    19    7    8 1    
    20    7   64 1    
    21    7   65 1    
    22    8    9 1    
    23    8   66 1    
    24    8   67 1    
    25    9   10 1    
    26    9   11 1    
    27    9   17 1    
    28   10   14 1    
    29   10   68 1    
    30   11   12 1    
    31   11   21 1    
    32   11   41 1    
    33   12   13 1    
    34   12   16 1    
    35   12   69 1    
    36   13   14 1    
    37   13   70 1    
    38   13   71 1    
    39   14   72 1    
    40   14   73 1    
    41   16   15 1    
    42   15   20 1    
    43   15   41 1    
    44   15   47 1    
    45   16   46 1    
    46   16   74 1    
    47   17   75 1    
    48   17   76 1    
    49   17   77 1    
    50   18   78 1    
    51   18   79 1    
    52   18   80 1    
    53   19   23 1    
    54   20   21 1    
    55   21   81 1    
    56   21   82 1    
    57   22   83 1    
    58   22   84 1    
    59   22   85 1    
    60   23   24 1    
    61   23   28 1    
    62   23   86 1    
    63   24   25 1    
    64   25   26 1    
    65   25   42 1    
    66   25   87 1    
    67   26   27 1    
    68   26   44 1    
    69   26   88 1    
    70   27   28 1    
    71   27   38 1    
    72   27   89 1    
    73   28   29 1    
    74   28   90 1    
    75   29   30 1    
    76   30   31 1    
    77   30   34 1    
    78   30   91 1    
    79   31   32 1    
    80   32   35 1    
    81   32   36 1    
    82   32   92 1    
    83   34   33 1    
    84   33   35 1    
    85   33   37 1    
    86   33   93 1    
    87   34   39 1    
    88   34   94 1    
    89   35   40 1    
    90   35   95 1    
    91   36   96 1    
    92   36   97 1    
    93   36   98 1    
    94   37   99 1    
    95   38  100 1    
    96   39  101 1    
    97   40  102 1    
    98   41  103 1    
    99   41  104 1    
   100   42   43 1    
   101   42  105 1    
   102   42  106 1    
   103   43  107 1    
   104   44  108 1    
   105   45  109 1    
   106   45  110 1    
   107   45  111 1    
   108   46   48 1    
   109   46   51 1    
   110   46   53 1    
   111   47   48 1    
   112   48   49 1    
   113   48   52 1    
   114   49   50 1    
   115   49  112 1    
   116   49  113 1    
   117   50   51 1    
   118   50   54 1    
   119   50  114 1    
   120   53  115 1    
   121   53  116 1    
   122   53  117 1    
   123   54   55 1    
   124   54   56 1    
   125   54   57 1    
   126   55  118 1    
   127   55  119 1    
   128   55  120 1    
   129   56  121 1    
   130   57  122 1    
   131   57  123 1    
   132   57  124 1    
@<TRIPOS>SUBSTRUCTURE
     1 ****        1 TEMP              0 ****  ****    0 ROOT 
@<TRIPOS>NORMAL
@<TRIPOS>FF_PBC
FORCE_FIELD_SETUP_FEATURE Force Field Setup information
v1.0  0 0.000000 0.000000 0.000000 0.000000 0.000000 0.000000 NONE 0 0 0 0 1 0 0 0 0 0 0 0 0
