@<TRIPOS>MOLECULE
MOL001400
   63    63     1     1     0
SMALL
GASTEIGER


@<TRIPOS>ATOM
      1 O          -1.505991    2.126108   -2.258762 O.3       1 <1>        -0.308830 
      2 C          -1.348821    3.008727   -3.248699 C.2       1 <1>         0.262756 
      3 C          -1.575734    2.432285   -4.616582 C.3       1 <1>         0.035823 
      4 C          -2.293887    1.123853   -4.223252 C.3       1 <1>        -0.014428 
      5 C          -1.695509    0.819670   -2.825063 C.3       1 <1>         0.076582 
      6 O          -1.065746    4.178444   -3.051246 O.2       1 <1>        -0.264955 
      7 C          -2.681422   -0.005169   -1.945116 C.3       1 <1>        -0.023392 
      8 C          -2.146506   -0.301808   -0.516031 C.3       1 <1>        -0.050203 
      9 C          -3.247427   -0.910746    0.394486 C.3       1 <1>        -0.050370 
     10 C          -2.742821   -1.434965    1.777369 C.3       1 <1>        -0.043878 
     11 C          -2.048780   -0.339737    2.652566 C.3       1 <1>        -0.050451 
     12 C          -0.499056   -0.304988    2.499173 C.3       1 <1>        -0.052574 
     13 C           0.140033    0.825628    3.351445 C.3       1 <1>        -0.050451 
     14 C           1.702925    0.839151    3.355568 C.3       1 <1>        -0.043879 
     15 C           2.330039    1.005720    1.932246 C.3       1 <1>        -0.050451 
     16 C           2.737958   -0.341989    1.265335 C.3       1 <1>        -0.052582 
     17 C           3.232485   -0.118892   -0.191720 C.3       1 <1>        -0.050700 
     18 C           3.729688   -1.415240   -0.901373 C.3       1 <1>        -0.046721 
     19 C           2.612469   -2.488470   -1.042441 C.3       1 <1>        -0.062665 
     20 C           4.284511   -1.057509   -2.309529 C.3       1 <1>        -0.062665 
     21 C           2.182622    1.989523    4.289213 C.3       1 <1>        -0.062415 
     22 C          -3.954828   -2.043399    2.543477 C.3       1 <1>        -0.062415 
     23 C          -0.307961    0.128226   -2.950907 C.3       1 <1>        -0.035217 
     24 H          -2.200382    3.086473   -5.245195 H         1 <1>         0.036698 
     25 H          -0.610839    2.261380   -5.116848 H         1 <1>         0.036698 
     26 H          -2.147211    0.309821   -4.950765 H         1 <1>         0.029778 
     27 H          -3.373487    1.330512   -4.135381 H         1 <1>         0.029778 
     28 H          -3.613172    0.574601   -1.845390 H         1 <1>         0.029298 
     29 H          -2.919040   -0.952059   -2.456083 H         1 <1>         0.029298 
     30 H          -1.312735   -1.018915   -0.573006 H         1 <1>         0.026625 
     31 H          -1.792833    0.647738   -0.084799 H         1 <1>         0.026625 
     32 H          -4.033218   -0.154733    0.556123 H         1 <1>         0.026786 
     33 H          -3.701382   -1.755301   -0.150212 H         1 <1>         0.026786 
     34 H          -2.031496   -2.260767    1.602432 H         1 <1>         0.029813 
     35 H          -2.242779   -0.539398    3.719052 H         1 <1>         0.026785 
     36 H          -2.482621    0.646668    2.424251 H         1 <1>         0.026785 
     37 H          -0.237567   -0.142028    1.448237 H         1 <1>         0.026545 
     38 H          -0.083023   -1.274775    2.818464 H         1 <1>         0.026545 
     39 H          -0.207945    0.704034    4.390545 H         1 <1>         0.026785 
     40 H          -0.231778    1.796670    2.985335 H         1 <1>         0.026785 
     41 H           2.062862   -0.104542    3.800894 H         1 <1>         0.029813 
     42 H           3.253631    1.604277    1.994093 H         1 <1>         0.026785 
     43 H           1.631948    1.561860    1.286619 H         1 <1>         0.026785 
     44 H           1.886126   -1.030989    1.262024 H         1 <1>         0.026545 
     45 H           3.544527   -0.810385    1.853535 H         1 <1>         0.026545 
     46 H           4.064210    0.604289   -0.162362 H         1 <1>         0.026777 
     47 H           2.419499    0.328749   -0.784241 H         1 <1>         0.026777 
     48 H           4.555953   -1.847874   -0.309843 H         1 <1>         0.029548 
     49 H           2.969119   -3.333416   -1.651513 H         1 <1>         0.023233 
     50 H           2.316280   -2.895174   -0.064678 H         1 <1>         0.023233 
     51 H           1.725535   -2.058195   -1.531690 H         1 <1>         0.023233 
     52 H           4.686613   -1.953181   -2.808335 H         1 <1>         0.023233 
     53 H           5.097096   -0.318456   -2.231790 H         1 <1>         0.023233 
     54 H           3.485954   -0.635605   -2.939386 H         1 <1>         0.023233 
     55 H           3.279219    1.977021    4.392289 H         1 <1>         0.023242 
     56 H           1.750712    1.886111    5.296925 H         1 <1>         0.023242 
     57 H           1.880634    2.965070    3.877517 H         1 <1>         0.023242 
     58 H          -3.626980   -2.513909    3.484025 H         1 <1>         0.023242 
     59 H          -4.455349   -2.816817    1.939963 H         1 <1>         0.023242 
     60 H          -4.687874   -1.257333    2.782457 H         1 <1>         0.023242 
     61 H          -0.428237   -0.907339   -3.303026 H         1 <1>         0.025746 
     62 H           0.355947    0.656824   -3.648442 H         1 <1>         0.025746 
     63 H           0.196841    0.117723   -1.975643 H         1 <1>         0.025746 
@<TRIPOS>BOND
     1    1    2 1    
     2    1    5 1    
     3    2    3 1    
     4    2    6 2    
     5    3    4 1    
     6    3   24 1    
     7    3   25 1    
     8    4    5 1    
     9    4   26 1    
    10    4   27 1    
    11    5    7 1    
    12    5   23 1    
    13    7    8 1    
    14    7   28 1    
    15    7   29 1    
    16    8    9 1    
    17    8   30 1    
    18    8   31 1    
    19    9   10 1    
    20    9   32 1    
    21    9   33 1    
    22   10   11 1    
    23   10   22 1    
    24   10   34 1    
    25   11   12 1    
    26   11   35 1    
    27   11   36 1    
    28   12   13 1    
    29   12   37 1    
    30   12   38 1    
    31   13   14 1    
    32   13   39 1    
    33   13   40 1    
    34   14   15 1    
    35   14   21 1    
    36   14   41 1    
    37   15   16 1    
    38   15   42 1    
    39   15   43 1    
    40   16   17 1    
    41   16   44 1    
    42   16   45 1    
    43   17   18 1    
    44   17   46 1    
    45   17   47 1    
    46   18   19 1    
    47   18   20 1    
    48   18   48 1    
    49   19   49 1    
    50   19   50 1    
    51   19   51 1    
    52   20   52 1    
    53   20   53 1    
    54   20   54 1    
    55   21   55 1    
    56   21   56 1    
    57   21   57 1    
    58   22   58 1    
    59   22   59 1    
    60   22   60 1    
    61   23   61 1    
    62   23   62 1    
    63   23   63 1    
@<TRIPOS>SUBSTRUCTURE
     1 ****        1 TEMP              0 ****  ****    0 ROOT 
@<TRIPOS>NORMAL
@<TRIPOS>FF_PBC
FORCE_FIELD_SETUP_FEATURE Force Field Setup information
v1.0  0 0.000000 0.000000 0.000000 0.000000 0.000000 0.000000 NONE 0 0 0 0 1 0 0 0 0 0 0 0 0
