@<TRIPOS>MOLECULE
MOL005275
   41    40     1     1     0
SMALL
GASTEIGER


@<TRIPOS>ATOM
      1 C          -1.317800   -2.498882    0.143329 C.3       1 <1>        -0.038959 
      2 C           0.035097   -1.700976   -0.052110 C.3       1 <1>        -0.041061 
      3 C          -2.642415   -1.702885   -0.183614 C.3       1 <1>        -0.043893 
      4 C           0.011290   -0.183096    0.329951 C.3       1 <1>        -0.050209 
      5 C           1.299729    0.607802   -0.047553 C.3       1 <1>        -0.052807 
      6 C          -1.257284   -3.813510   -0.705429 C.3       1 <1>        -0.061938 
      7 C           1.214226   -2.375222    0.723821 C.3       1 <1>        -0.062164 
      8 C           1.107423    2.139460    0.142945 C.3       1 <1>        -0.053057 
      9 C          -3.855502   -2.582715   -0.626689 C.3       1 <1>        -0.062414 
     10 C          -3.155945   -0.870010    1.034929 C.3       1 <1>        -0.062414 
     11 C           2.401912    2.924200   -0.207575 C.3       1 <1>        -0.053306 
     12 C           2.204482    4.453968   -0.025357 C.3       1 <1>        -0.055911 
     13 C           3.498717    5.234843   -0.372915 C.3       1 <1>        -0.065276 
     14 H          -1.376004   -2.805449    1.200962 H         1 <1>         0.030319 
     15 H           0.264688   -1.737002   -1.130674 H         1 <1>         0.030079 
     16 H          -2.448073   -1.041876   -1.044123 H         1 <1>         0.029814 
     17 H          -0.806229    0.323560   -0.201055 H         1 <1>         0.026794 
     18 H          -0.137201   -0.072317    1.415201 H         1 <1>         0.026794 
     19 H           2.143962    0.303038    0.590021 H         1 <1>         0.026537 
     20 H           1.563018    0.407424   -1.098988 H         1 <1>         0.026537 
     21 H          -2.077187   -4.499715   -0.448040 H         1 <1>         0.023258 
     22 H          -0.342101   -4.398271   -0.562822 H         1 <1>         0.023258 
     23 H          -1.317450   -3.569543   -1.777204 H         1 <1>         0.023258 
     24 H           2.184956   -1.983536    0.389007 H         1 <1>         0.023250 
     25 H           1.277103   -3.461590    0.599200 H         1 <1>         0.023250 
     26 H           1.111556   -2.179672    1.802173 H         1 <1>         0.023250 
     27 H           0.289560    2.493168   -0.506396 H         1 <1>         0.026528 
     28 H           0.828894    2.343722    1.190110 H         1 <1>         0.026528 
     29 H          -4.750709   -1.960145   -0.782946 H         1 <1>         0.023242 
     30 H          -3.673926   -3.098373   -1.581474 H         1 <1>         0.023242 
     31 H          -4.020964   -0.254021    0.743157 H         1 <1>         0.023242 
     32 H          -2.415382   -0.188137    1.461090 H         1 <1>         0.023242 
     33 H          -3.476657   -1.547463    1.841452 H         1 <1>         0.023242 
     34 H          -4.097916   -3.328658    0.145908 H         1 <1>         0.023242 
     35 H           3.223945    2.585090    0.444093 H         1 <1>         0.026520 
     36 H           2.682290    2.716345   -1.253358 H         1 <1>         0.026520 
     37 H           1.387744    4.801915   -0.679680 H         1 <1>         0.026265 
     38 H           1.924283    4.668275    1.019525 H         1 <1>         0.026265 
     39 H           3.337518    6.316030   -0.236689 H         1 <1>         0.022978 
     40 H           4.325675    4.919122    0.282184 H         1 <1>         0.022978 
     41 H           3.787928    5.053340   -1.419881 H         1 <1>         0.022978 
@<TRIPOS>BOND
     1    1    2 1    
     2    1    3 1    
     3    1    6 1    
     4    1   14 1    
     5    2    4 1    
     6    2    7 1    
     7    2   15 1    
     8    3    9 1    
     9    3   10 1    
    10    3   16 1    
    11    4    5 1    
    12    4   17 1    
    13    4   18 1    
    14    5    8 1    
    15    5   19 1    
    16    5   20 1    
    17    6   21 1    
    18    6   22 1    
    19    6   23 1    
    20    7   24 1    
    21    7   25 1    
    22    7   26 1    
    23    8   11 1    
    24    8   27 1    
    25    8   28 1    
    26    9   29 1    
    27    9   30 1    
    28    9   34 1    
    29   10   31 1    
    30   10   32 1    
    31   10   33 1    
    32   11   12 1    
    33   11   35 1    
    34   11   36 1    
    35   12   13 1    
    36   12   37 1    
    37   12   38 1    
    38   13   39 1    
    39   13   40 1    
    40   13   41 1    
@<TRIPOS>SUBSTRUCTURE
     1 ****        1 TEMP              0 ****  ****    0 ROOT 
@<TRIPOS>NORMAL
@<TRIPOS>FF_PBC
FORCE_FIELD_SETUP_FEATURE Force Field Setup information
v1.0  0 0.000000 0.000000 0.000000 0.000000 0.000000 0.000000 NONE 0 0 0 0 1 0 0 0 0 0 0 0 0
