@<TRIPOS>MOLECULE
MOL003535
   29    30     1     1     0
SMALL
GASTEIGER


@<TRIPOS>ATOM
      1 C          -0.330969    2.406334    1.223821 C.2       1 <1>        -0.082628 
      2 C          -1.618505    1.752945    0.790070 C.3       1 <1>        -0.025262 
      3 C          -1.449715    0.816335   -0.443572 C.3       1 <1>        -0.005881 
      4 C           0.834178    1.755031    1.153382 C.2       1 <1>        -0.058208 
      5 C           0.871268    0.344490    0.612125 C.ar      1 <1>        -0.021376 
      6 C          -0.280984   -0.155222   -0.178013 C.ar      1 <1>        -0.034282 
      7 C          -0.241401   -1.491493   -0.661886 C.ar      1 <1>        -0.057241 
      8 C           0.930759   -2.356150   -0.387528 C.ar      1 <1>        -0.058528 
      9 C           2.022736   -1.869302    0.346418 C.ar      1 <1>        -0.049873 
     10 C           1.988478   -0.477942    0.858131 C.ar      1 <1>        -0.051405 
     11 C          -2.804165    0.087863   -0.694045 C.3       1 <1>        -0.055490 
     12 C          -1.078038    1.658355   -1.696110 C.3       1 <1>        -0.055490 
     13 C           3.227965   -2.777212    0.610458 C.3       1 <1>        -0.039691 
     14 H          -0.354083    3.423432    1.619191 H         1 <1>         0.057248 
     15 H          -1.990555    1.174324    1.650254 H         1 <1>         0.031577 
     16 H          -2.358961    2.536041    0.560631 H         1 <1>         0.031577 
     17 H           1.754275    2.232396    1.492201 H         1 <1>         0.062042 
     18 H          -1.054504   -1.905376   -1.243659 H         1 <1>         0.062072 
     19 H           0.942263   -3.374417   -0.762276 H         1 <1>         0.062029 
     20 H           2.825290   -0.092404    1.429929 H         1 <1>         0.062615 
     21 H          -3.004592   -0.631189    0.115203 H         1 <1>         0.023822 
     22 H          -2.810821   -0.446549   -1.655278 H         1 <1>         0.023822 
     23 H          -3.630684    0.814497   -0.723101 H         1 <1>         0.023822 
     24 H          -1.877066    2.376709   -1.934883 H         1 <1>         0.023822 
     25 H          -0.145241    2.218067   -1.528779 H         1 <1>         0.023822 
     26 H          -0.930393    0.999268   -2.565475 H         1 <1>         0.023822 
     27 H           3.984800   -2.272628    1.229227 H         1 <1>         0.027754 
     28 H           2.893308   -3.686116    1.132731 H         1 <1>         0.027754 
     29 H           3.685760   -3.060183   -0.349264 H         1 <1>         0.027754 
@<TRIPOS>BOND
     1    1    2 1    
     2    1    4 2    
     3    1   14 1    
     4    2    3 1    
     5    2   15 1    
     6    2   16 1    
     7    3    6 1    
     8    3   11 1    
     9    3   12 1    
    10    4    5 1    
    11    4   17 1    
    12    5    6 1    
    13    5   10 2    
    14    6    7 2    
    15    7    8 1    
    16    7   18 1    
    17    8    9 2    
    18    8   19 1    
    19    9   10 1    
    20    9   13 1    
    21   10   20 1    
    22   11   21 1    
    23   11   22 1    
    24   11   23 1    
    25   12   24 1    
    26   12   25 1    
    27   12   26 1    
    28   13   27 1    
    29   13   28 1    
    30   13   29 1    
@<TRIPOS>SUBSTRUCTURE
     1 ****        1 TEMP              0 ****  ****    0 ROOT 
@<TRIPOS>NORMAL
@<TRIPOS>FF_PBC
FORCE_FIELD_SETUP_FEATURE Force Field Setup information
v1.0  0 0.000000 0.000000 0.000000 0.000000 0.000000 0.000000 NONE 0 0 0 0 1 0 0 0 0 0 0 0 0
