@<TRIPOS>MOLECULE
MOL001210
   27    27     1     1     0
SMALL
GASTEIGER


@<TRIPOS>ATOM
      1 C           1.531094   -1.143427   -0.848212 C.2       1 <1>        -0.012080 
      2 C           0.364470   -1.806305   -0.838648 C.2       1 <1>        -0.077529 
      3 C          -0.980491   -1.130357   -0.941543 C.3       1 <1>        -0.031033 
      4 C          -0.915490    0.355131   -0.482705 C.3       1 <1>        -0.034964 
      5 C           0.223520    1.002357   -1.321831 C.3       1 <1>        -0.045613 
      6 C           1.591198    0.362928   -0.966825 C.3       1 <1>        -0.024685 
      7 C          -0.741862    0.518870    1.069390 C.3       1 <1>        -0.043597 
      8 C          -0.532319    2.009102    1.473720 C.3       1 <1>        -0.062404 
      9 C          -1.967365   -0.028617    1.863337 C.3       1 <1>        -0.062404 
     10 C           2.806612   -1.883957   -0.742153 C.2       1 <1>         0.145953 
     11 O           3.869088   -1.283752   -0.728940 O.2       1 <1>        -0.296044 
     12 H           0.361886   -2.894876   -0.762746 H         1 <1>         0.057576 
     13 H          -1.281702   -1.185107   -2.000345 H         1 <1>         0.031026 
     14 H          -1.734902   -1.696006   -0.379213 H         1 <1>         0.031026 
     15 H          -1.863811    0.845133   -0.763933 H         1 <1>         0.030631 
     16 H           0.260678    2.095773   -1.199386 H         1 <1>         0.027124 
     17 H           0.023891    0.820850   -2.391652 H         1 <1>         0.027124 
     18 H           1.958347    0.756749   -0.007058 H         1 <1>         0.031414 
     19 H           2.326677    0.640984   -1.739375 H         1 <1>         0.031414 
     20 H           0.138839   -0.052109    1.407817 H         1 <1>         0.029823 
     21 H           0.419341    2.409186    1.097219 H         1 <1>         0.023242 
     22 H          -0.505814    2.120017    2.568786 H         1 <1>         0.023242 
     23 H          -1.356001    2.626555    1.083976 H         1 <1>         0.023242 
     24 H          -2.062801   -1.120230    1.786098 H         1 <1>         0.023242 
     25 H          -1.869799    0.196959    2.936723 H         1 <1>         0.023242 
     26 H          -2.896998    0.435125    1.499754 H         1 <1>         0.023242 
     27 H           2.833617   -2.970878   -0.671956 H         1 <1>         0.107793 
@<TRIPOS>BOND
     1    1    2 2    
     2    1    6 1    
     3    1   10 1    
     4    2    3 1    
     5    2   12 1    
     6    3    4 1    
     7    3   13 1    
     8    3   14 1    
     9    4    5 1    
    10    4    7 1    
    11    4   15 1    
    12    5    6 1    
    13    5   16 1    
    14    5   17 1    
    15    6   18 1    
    16    6   19 1    
    17    7    8 1    
    18    7    9 1    
    19    7   20 1    
    20    8   21 1    
    21    8   22 1    
    22    8   23 1    
    23    9   24 1    
    24    9   25 1    
    25    9   26 1    
    26   10   11 2    
    27   10   27 1    
@<TRIPOS>SUBSTRUCTURE
     1 ****        1 TEMP              0 ****  ****    0 ROOT 
@<TRIPOS>NORMAL
@<TRIPOS>FF_PBC
FORCE_FIELD_SETUP_FEATURE Force Field Setup information
v1.0  0 0.000000 0.000000 0.000000 0.000000 0.000000 0.000000 NONE 0 0 0 0 1 0 0 0 0 0 0 0 0
