@<TRIPOS>MOLECULE
MOL006122
   21    20     1     1     0
SMALL
GASTEIGER


@<TRIPOS>ATOM
      1 C          -1.634041   -2.394203    0.000021 C.2       1 <1>        -0.091108 
      2 C          -0.344321   -1.608957    0.000128 C.3       1 <1>        -0.035012 
      3 C          -0.595175   -0.076836   -0.000139 C.3       1 <1>        -0.049633 
      4 C           0.740612    0.715821    0.000066 C.3       1 <1>        -0.053028 
      5 C           0.489090    2.248377   -0.000158 C.3       1 <1>        -0.055902 
      6 C           1.823685    3.038426    0.000081 C.3       1 <1>        -0.065276 
      7 C          -1.639342   -3.732679   -0.000036 C.2       1 <1>        -0.102630 
      8 H          -2.588799   -1.865231   -0.000014 H         1 <1>         0.056630 
      9 H           0.236993   -1.886242    0.894249 H         1 <1>         0.030724 
     10 H           0.237335   -1.886482   -0.893686 H         1 <1>         0.030724 
     11 H          -1.181307    0.193212   -0.894254 H         1 <1>         0.026822 
     12 H          -1.181700    0.193442    0.893704 H         1 <1>         0.026822 
     13 H           1.326285    0.443563    0.893617 H         1 <1>         0.026529 
     14 H           1.326664    0.443368   -0.893108 H         1 <1>         0.026529 
     15 H          -0.094170    2.526740   -0.893788 H         1 <1>         0.026265 
     16 H          -0.094593    2.526938    0.893191 H         1 <1>         0.026265 
     17 H           1.623469    4.121629   -0.000075 H         1 <1>         0.022978 
     18 H           2.415815    2.792082    0.895288 H         1 <1>         0.022978 
     19 H           2.416232    2.791883   -0.894776 H         1 <1>         0.022978 
     20 H          -2.576723   -4.289548   -0.000108 H         1 <1>         0.053174 
     21 H          -0.706206   -4.295902   -0.000000 H         1 <1>         0.053174 
@<TRIPOS>BOND
     1    1    2 1    
     2    1    7 2    
     3    1    8 1    
     4    2    3 1    
     5    2    9 1    
     6    2   10 1    
     7    3    4 1    
     8    3   11 1    
     9    3   12 1    
    10    4    5 1    
    11    4   13 1    
    12    4   14 1    
    13    5    6 1    
    14    5   15 1    
    15    5   16 1    
    16    6   17 1    
    17    6   18 1    
    18    6   19 1    
    19    7   20 1    
    20    7   21 1    
@<TRIPOS>SUBSTRUCTURE
     1 ****        1 TEMP              0 ****  ****    0 ROOT 
@<TRIPOS>NORMAL
@<TRIPOS>FF_PBC
FORCE_FIELD_SETUP_FEATURE Force Field Setup information
v1.0  0 0.000000 0.000000 0.000000 0.000000 0.000000 0.000000 NONE 0 0 0 0 1 0 0 0 0 0 0 0 0
