@<TRIPOS>MOLECULE
MOL012939
   81    83     1     1     0
SMALL
GASTEIGER


@<TRIPOS>ATOM
      1 C           0.946094   -0.530269    2.714173 C.2       1 <1>         0.231161 
      2 C           0.416446   -1.171233    3.979957 C.3       1 <1>         0.089340 
      3 C           1.095215   -0.691973    5.297253 C.3       1 <1>        -0.020006 
      4 C           2.619812   -1.017529    5.396074 C.3       1 <1>        -0.051437 
      5 C           3.180866   -1.099232    6.845349 C.3       1 <1>        -0.064973 
      6 O           2.099032   -0.150221    2.661096 O.2       1 <1>        -0.274066 
      7 N           0.101550   -0.378916    1.662126 N.am      1 <1>        -0.300544 
      8 C          -1.230912   -0.990448   -1.864759 C.ar      1 <1>         0.076681 
      9 O           0.105668   -1.363103   -1.780928 O.3       1 <1>        -0.338898 
     10 C           0.888494   -1.140515   -0.585838 C.3       1 <1>         0.094269 
     11 C           0.560491    0.092099    0.345187 C.3       1 <1>         0.126457 
     12 C          -0.437164    1.109882   -0.170957 C.2       1 <1>         0.236538 
     13 N          -0.333887    1.605696   -1.424117 N.am      1 <1>        -0.302076 
     14 C          -1.288680    2.608651   -1.916611 C.3       1 <1>         0.103656 
     15 C          -2.108041    3.366378   -0.903595 C.2       1 <1>         0.237427 
     16 N          -3.479819    3.366092   -0.837782 N.am      1 <1>        -0.290407 
     17 C          -4.555077    2.682356   -1.328235 C.2       1 <1>        -0.003130 
     18 C          -4.707926    1.428783   -1.840858 C.2       1 <1>        -0.040693 
     19 C          -3.636809    0.388392   -1.907696 C.ar      1 <1>        -0.023697 
     20 C          -3.296422   -0.299141   -0.801038 C.ar      1 <1>        -0.052116 
     21 C          -2.053618   -1.106922   -0.811145 C.ar      1 <1>        -0.031108 
     22 C          -1.740764   -0.451433   -3.138663 C.ar      1 <1>        -0.031108 
     23 C          -2.931160    0.148198   -3.202204 C.ar      1 <1>        -0.052116 
     24 C          -0.635097    3.528643   -2.988253 C.3       1 <1>        -0.000647 
     25 C          -0.628088    2.785119   -4.343795 C.ar      1 <1>        -0.045141 
     26 C           0.531569    1.972445   -4.791721 C.ar      1 <1>        -0.058501 
     27 C           0.462806    1.213702   -5.986721 C.ar      1 <1>        -0.061500 
     28 C          -0.755649    1.245636   -6.825858 C.ar      1 <1>        -0.061742 
     29 C          -1.816035    2.064586   -6.445438 C.ar      1 <1>        -0.061500 
     30 C          -1.756357    2.844621   -5.184472 C.ar      1 <1>        -0.058501 
     31 O          -1.446977    4.070130   -0.154751 O.2       1 <1>        -0.273436 
     32 O          -1.320115    1.446530    0.604934 O.2       1 <1>        -0.273666 
     33 C           2.368449   -1.145155   -1.098583 C.3       1 <1>        -0.017648 
     34 C           3.442201   -1.237112    0.024342 C.3       1 <1>        -0.060225 
     35 C           2.631483   -2.265907   -2.147024 C.3       1 <1>        -0.060225 
     36 C           0.805565    0.822048    5.517403 C.3       1 <1>        -0.060544 
     37 N           0.514946   -2.639822    3.888864 N.3       1 <1>        -0.297428 
     38 C          -0.055496   -3.534889    4.898364 C.3       1 <1>        -0.012325 
     39 C           1.235627   -3.417345    2.856185 C.3       1 <1>        -0.012325 
     40 H          -0.655380   -0.937718    4.070703 H         1 <1>         0.056095 
     41 H           0.582784   -1.202721    6.127025 H         1 <1>         0.031782 
     42 H           2.786363   -1.999654    4.925807 H         1 <1>         0.026581 
     43 H           3.194968   -0.252720    4.847632 H         1 <1>         0.026581 
     44 H           4.253809   -1.345212    6.795052 H         1 <1>         0.022987 
     45 H           3.075203   -0.154549    7.393826 H         1 <1>         0.022987 
     46 H           2.665526   -1.881243    7.422313 H         1 <1>         0.022987 
     47 H          -0.872061   -0.584051    1.740645 H         1 <1>         0.149577 
     48 H           0.709533   -2.056804   -0.008388 H         1 <1>         0.062716 
     49 H           1.448279    0.715910    0.466954 H         1 <1>         0.062102 
     50 H           0.388920    1.297468   -2.041225 H         1 <1>         0.149519 
     51 H          -2.090492    2.165466   -2.468855 H         1 <1>         0.059780 
     52 H          -3.779990    4.152363   -0.297144 H         1 <1>         0.154295 
     53 H          -5.519752    3.214846   -1.298996 H         1 <1>         0.078217 
     54 H          -5.669479    1.097160   -2.219135 H         1 <1>         0.063587 
     55 H          -3.880637   -0.207280    0.112537 H         1 <1>         0.062423 
     56 H          -1.797446   -1.719965    0.037076 H         1 <1>         0.064346 
     57 H          -1.139761   -0.561178   -4.029011 H         1 <1>         0.064346 
     58 H          -3.356911    0.487052   -4.147849 H         1 <1>         0.062423 
     59 H           0.396153    3.767145   -2.676084 H         1 <1>         0.033588 
     60 H          -1.200058    4.468623   -3.107626 H         1 <1>         0.033588 
     61 H           1.444388    1.948298   -4.203238 H         1 <1>         0.062030 
     62 H           1.301979    0.603753   -6.300342 H         1 <1>         0.061766 
     63 H          -0.811470    0.638305   -7.726072 H         1 <1>         0.061758 
     64 H          -2.700227    2.116538   -7.067411 H         1 <1>         0.061766 
     65 H          -2.614200    3.447788   -4.901526 H         1 <1>         0.062030 
     66 H           2.520887   -0.191393   -1.624392 H         1 <1>         0.032124 
     67 H           3.469504   -0.345337    0.663096 H         1 <1>         0.023314 
     68 H           4.447845   -1.348220   -0.401581 H         1 <1>         0.023314 
     69 H           3.272815   -2.110911    0.658054 H         1 <1>         0.023314 
     70 H           1.993921   -2.148040   -3.032103 H         1 <1>         0.023314 
     71 H           3.678845   -2.248434   -2.488719 H         1 <1>         0.023314 
     72 H           2.398993   -3.250994   -1.724871 H         1 <1>         0.023314 
     73 H           1.170180    1.164653    6.499448 H         1 <1>         0.023302 
     74 H          -0.275326    1.042758    5.478025 H         1 <1>         0.023302 
     75 H           1.300279    1.432126    4.747478 H         1 <1>         0.023302 
     76 H          -0.298105   -4.539655    4.519385 H         1 <1>         0.039072 
     77 H          -0.957200   -3.099905    5.339744 H         1 <1>         0.039072 
     78 H           0.747848   -3.650183    5.628860 H         1 <1>         0.039072 
     79 H           0.443029   -4.014398    2.403245 H         1 <1>         0.039072 
     80 H           2.079271   -3.982348    3.251512 H         1 <1>         0.039072 
     81 H           1.726119   -3.032156    1.970497 H         1 <1>         0.039072 
@<TRIPOS>BOND
     1    1    2 1    
     2    1    6 2    
     3    7    1 1    
     4    2    3 1    
     5    2   37 1    
     6    2   40 1    
     7    3    4 1    
     8    3   36 1    
     9    3   41 1    
    10    4    5 1    
    11    4   42 1    
    12    4   43 1    
    13    5   44 1    
    14    5   45 1    
    15    5   46 1    
    16   11    7 1    
    17    7   47 1    
    18    9    8 1    
    19    8   21 2    
    20    8   22 1    
    21   10    9 1    
    22   10   11 1    
    23   10   33 1    
    24   10   48 1    
    25   11   12 1    
    26   11   49 1    
    27   12   13 1    
    28   12   32 2    
    29   13   14 1    
    30   13   50 1    
    31   14   15 1    
    32   14   24 1    
    33   14   51 1    
    34   15   16 1    
    35   15   31 2    
    36   16   17 1    
    37   16   52 1    
    38   17   18 2    
    39   17   53 1    
    40   18   19 1    
    41   18   54 1    
    42   19   20 2    
    43   19   23 1    
    44   20   21 1    
    45   20   55 1    
    46   21   56 1    
    47   22   23 2    
    48   22   57 1    
    49   23   58 1    
    50   24   25 1    
    51   24   59 1    
    52   24   60 1    
    53   25   26 1    
    54   25   30 2    
    55   26   27 2    
    56   26   61 1    
    57   27   28 1    
    58   27   62 1    
    59   28   29 2    
    60   28   63 1    
    61   29   30 1    
    62   29   64 1    
    63   30   65 1    
    64   33   34 1    
    65   33   35 1    
    66   33   66 1    
    67   34   67 1    
    68   34   68 1    
    69   34   69 1    
    70   35   70 1    
    71   35   71 1    
    72   35   72 1    
    73   36   73 1    
    74   36   74 1    
    75   36   75 1    
    76   37   38 1    
    77   37   39 1    
    78   38   76 1    
    79   38   77 1    
    80   38   78 1    
    81   39   79 1    
    82   39   80 1    
    83   39   81 1    
@<TRIPOS>SUBSTRUCTURE
     1 ****        8 TEMP              0 ****  ****    0 ROOT 
@<TRIPOS>NORMAL
@<TRIPOS>FF_PBC
FORCE_FIELD_SETUP_FEATURE Force Field Setup information
v1.0  0 0.000000 0.000000 0.000000 0.000000 0.000000 0.000000 NONE 0 0 0 0 1 0 0 0 0 0 0 0 0
