@<TRIPOS>MOLECULE
MOL001935
   26    27     1     1     0
SMALL
GASTEIGER


@<TRIPOS>ATOM
      1 O          -2.088191   -1.477866   -0.115805 O.3       1 <1>        -0.307628 
      2 O           2.265821   -0.565030    1.701423 O.3       1 <1>        -0.381257 
      3 O           1.666982    1.886866    0.872701 O.2       1 <1>        -0.294341 
      4 O          -3.675114   -0.493148    1.102010 O.2       1 <1>        -0.259576 
      5 C          -0.986608    0.502393   -0.922554 C.3       1 <1>         0.022947 
      6 C          -0.799908   -1.007384   -0.569233 C.3       1 <1>         0.078708 
      7 C           0.174393   -1.202106    0.630208 C.3       1 <1>         0.010219 
      8 C           1.535118   -0.475801    0.460725 C.3       1 <1>         0.123157 
      9 C           0.345459    1.291846   -0.996418 C.3       1 <1>         0.018072 
     10 C           1.230228    0.981734    0.179449 C.2       1 <1>         0.165053 
     11 C          -1.994142    0.853262    0.136280 C.2       1 <1>         0.022955 
     12 C           2.409708   -1.102195   -0.661213 C.3       1 <1>        -0.029027 
     13 C          -2.661708   -0.412115    0.428615 C.2       1 <1>         0.289866 
     14 C          -2.230406    2.049601    0.686666 C.2       1 <1>        -0.089456 
     15 H          -1.513752    0.594305   -1.887822 H         1 <1>         0.037988 
     16 H          -0.461298   -1.597457   -1.436408 H         1 <1>         0.060926 
     17 H          -0.283627   -0.799969    1.548581 H         1 <1>         0.032247 
     18 H           0.336194   -2.280138    0.789382 H         1 <1>         0.032247 
     19 H           0.142126    2.371883   -1.049939 H         1 <1>         0.034927 
     20 H           0.882920    1.024076   -1.917925 H         1 <1>         0.034927 
     21 H           2.651667   -2.147541   -0.416340 H         1 <1>         0.026147 
     22 H           1.915813   -1.092425   -1.641955 H         1 <1>         0.026147 
     23 H           3.351208   -0.537274   -0.739204 H         1 <1>         0.026147 
     24 H           2.467634   -1.455794    1.968227 H         1 <1>         0.210726 
     25 H          -1.679714    2.943136    0.399822 H         1 <1>         0.053938 
     26 H          -3.000199    2.148244    1.451425 H         1 <1>         0.053938 
@<TRIPOS>BOND
     1    6    1 1    
     2    1   13 1    
     3    8    2 1    
     4    2   24 1    
     5   10    3 2    
     6   13    4 2    
     7    6    5 1    
     8    5    9 1    
     9    5   11 1    
    10    5   15 1    
    11    7    6 1    
    12    6   16 1    
    13    8    7 1    
    14    7   17 1    
    15    7   18 1    
    16    8   10 1    
    17    8   12 1    
    18    9   10 1    
    19    9   19 1    
    20    9   20 1    
    21   11   13 1    
    22   11   14 2    
    23   12   21 1    
    24   12   22 1    
    25   12   23 1    
    26   14   25 1    
    27   14   26 1    
@<TRIPOS>SUBSTRUCTURE
     1 ****        1 TEMP              0 ****  ****    0 ROOT 
@<TRIPOS>NORMAL
@<TRIPOS>FF_PBC
FORCE_FIELD_SETUP_FEATURE Force Field Setup information
v1.0  0 0.000000 0.000000 0.000000 0.000000 0.000000 0.000000 NONE 0 0 0 0 1 0 0 0 0 0 0 0 0
