@<TRIPOS>MOLECULE
MOL006130
   51    51     1     1     0
SMALL
GASTEIGER


@<TRIPOS>ATOM
      1 C           6.707330    1.489841   -0.720096 C.ar      1 <1>        -0.029141 
      2 C           7.141923    0.141484   -0.289148 C.ar      1 <1>         0.102451 
      3 C           6.179362   -0.792930    0.134112 C.ar      1 <1>         0.105659 
      4 C           4.743562   -0.427849    0.147413 C.ar      1 <1>        -0.025965 
      5 C           4.319274    0.854246   -0.268623 C.ar      1 <1>        -0.044363 
      6 C           5.344085    1.837933   -0.710432 C.ar      1 <1>        -0.055971 
      7 O           8.498592   -0.188423   -0.308520 O.3       1 <1>        -0.357269 
      8 O           6.584975   -2.064632    0.541110 O.3       1 <1>        -0.345341 
      9 C           6.281172   -3.109172   -0.398094 C.3       1 <1>         0.043136 
     10 C           2.810907    1.152558   -0.241439 C.3       1 <1>        -0.020913 
     11 C           2.413880    2.616231   -0.566577 C.3       1 <1>         0.010226 
     12 C           0.915514    2.797915   -0.515717 C.2       1 <1>         0.140741 
     13 C           0.357038    4.116772   -0.041066 C.3       1 <1>         0.064326 
     14 C           1.033256    5.321456   -0.650323 C.2       1 <1>         0.140433 
     15 C           0.727936    6.681540   -0.065249 C.3       1 <1>         0.006249 
     16 O           0.163666    1.890588   -0.838030 O.2       1 <1>        -0.296955 
     17 O           1.793510    5.212780   -1.598280 O.2       1 <1>        -0.296966 
     18 C          -0.769508    7.042016   -0.257895 C.3       1 <1>        -0.046363 
     19 C          -1.078868    8.514371    0.125139 C.3       1 <1>        -0.052673 
     20 C          -2.590644    8.817029   -0.066416 C.3       1 <1>        -0.053055 
     21 C          -2.933653   10.303904    0.220636 C.3       1 <1>        -0.053306 
     22 C          -4.454994   10.563477    0.039409 C.3       1 <1>        -0.055911 
     23 C          -4.809835   12.056178    0.262421 C.3       1 <1>        -0.065276 
     24 H           7.452870    2.208820   -1.043474 H         1 <1>         0.064412 
     25 H           4.016633   -1.160823    0.481207 H         1 <1>         0.064684 
     26 H           5.063012    2.834470   -1.031902 H         1 <1>         0.062110 
     27 H           8.651654   -1.064431    0.034339 H         1 <1>         0.217422 
     28 H           6.656801   -4.058295    0.012180 H         1 <1>         0.052871 
     29 H           6.775624   -2.919475   -1.364281 H         1 <1>         0.052871 
     30 H           5.195686   -3.201119   -0.557268 H         1 <1>         0.052871 
     31 H           2.428314    0.900753    0.761111 H         1 <1>         0.031721 
     32 H           2.336678    0.478168   -0.972691 H         1 <1>         0.031721 
     33 H           2.732964    2.854549   -1.592368 H         1 <1>         0.034481 
     34 H           2.906625    3.302265    0.140951 H         1 <1>         0.034481 
     35 H          -0.709565    4.146088   -0.310271 H         1 <1>         0.041892 
     36 H           0.441243    4.152976    1.055414 H         1 <1>         0.041892 
     37 H           1.352746    7.432893   -0.574362 H         1 <1>         0.034164 
     38 H           0.989727    6.693870    1.004811 H         1 <1>         0.034164 
     39 H          -1.393188    6.377790    0.361923 H         1 <1>         0.026927 
     40 H          -1.036587    6.883181   -1.315759 H         1 <1>         0.026927 
     41 H          -0.485569    9.191055   -0.511293 H         1 <1>         0.026539 
     42 H          -0.796767    8.691368    1.175643 H         1 <1>         0.026539 
     43 H          -3.176955    8.172557    0.608646 H         1 <1>         0.026528 
     44 H          -2.878674    8.580596   -1.104036 H         1 <1>         0.026528 
     45 H          -2.367797   10.949501   -0.471206 H         1 <1>         0.026520 
     46 H          -2.638567   10.559522    1.251695 H         1 <1>         0.026520 
     47 H          -5.020766    9.946867    0.758044 H         1 <1>         0.026265 
     48 H          -4.762586   10.273981   -0.979198 H         1 <1>         0.026265 
     49 H          -5.894055   12.208952    0.140600 H         1 <1>         0.022978 
     50 H          -4.283077   12.688532   -0.468973 H         1 <1>         0.022978 
     51 H          -4.522601   12.372575    1.277082 H         1 <1>         0.022978 
@<TRIPOS>BOND
     1    1    2 1    
     2    1    6 2    
     3    1   24 1    
     4    2    3 2    
     5    2    7 1    
     6    3    4 1    
     7    3    8 1    
     8    4    5 2    
     9    4   25 1    
    10    5    6 1    
    11    5   10 1    
    12    6   26 1    
    13    7   27 1    
    14    8    9 1    
    15    9   28 1    
    16    9   29 1    
    17    9   30 1    
    18   10   11 1    
    19   10   31 1    
    20   10   32 1    
    21   11   12 1    
    22   11   33 1    
    23   11   34 1    
    24   12   13 1    
    25   12   16 2    
    26   13   14 1    
    27   13   35 1    
    28   13   36 1    
    29   14   15 1    
    30   14   17 2    
    31   15   18 1    
    32   15   37 1    
    33   15   38 1    
    34   18   19 1    
    35   18   39 1    
    36   18   40 1    
    37   19   20 1    
    38   19   41 1    
    39   19   42 1    
    40   20   21 1    
    41   20   43 1    
    42   20   44 1    
    43   21   22 1    
    44   21   45 1    
    45   21   46 1    
    46   22   23 1    
    47   22   47 1    
    48   22   48 1    
    49   23   49 1    
    50   23   50 1    
    51   23   51 1    
@<TRIPOS>SUBSTRUCTURE
     1 ****        1 TEMP              0 ****  ****    0 ROOT 
@<TRIPOS>NORMAL
@<TRIPOS>FF_PBC
FORCE_FIELD_SETUP_FEATURE Force Field Setup information
v1.0  0 0.000000 0.000000 0.000000 0.000000 0.000000 0.000000 NONE 0 0 0 0 1 0 0 0 0 0 0 0 0
