@<TRIPOS>MOLECULE
MOL004995
   63    66     1     1     0
SMALL
GASTEIGER


@<TRIPOS>ATOM
      1 O          -5.876123   -0.784476    0.946841 O.3       1 <1>        -0.338376 
      2 O          -1.495248   -2.945996    0.773287 O.3       1 <1>        -0.343648 
      3 O          -1.971142    1.748269   -0.716416 O.3       1 <1>        -0.347204 
      4 O           2.504778   -0.161774    1.827764 O.3       1 <1>        -0.359186 
      5 O           6.193913   -1.691565   -1.082517 O.3       1 <1>        -0.359468 
      6 C          -6.749782    0.176665    0.334836 C.3       1 <1>         0.070796 
      7 C          -6.167536    1.597835    0.574469 C.3       1 <1>        -0.019621 
      8 C           0.557111   -1.704785    0.440605 C.3       1 <1>         0.014624 
      9 C          -4.798950    1.772211   -0.128777 C.3       1 <1>        -0.020171 
     10 C          -3.922120    0.536075    0.094824 C.ar      1 <1>         0.013050 
     11 C          -0.178476   -0.537823   -0.257760 C.3       1 <1>        -0.013741 
     12 C          -1.681469   -0.610448    0.031419 C.ar      1 <1>         0.013577 
     13 C          -4.518576   -0.714274    0.630092 C.ar      1 <1>         0.084949 
     14 C          -2.536924    0.579173   -0.205356 C.ar      1 <1>         0.087054 
     15 C          -2.266234   -1.803831    0.535416 C.ar      1 <1>         0.084291 
     16 C          -0.215456   -3.008755    0.125742 C.3       1 <1>         0.061401 
     17 C          -3.715285   -1.839069    0.833342 C.ar      1 <1>        -0.000923 
     18 C           2.040168   -1.715719    0.024638 C.ar      1 <1>        -0.011643 
     19 C          -8.122065    0.046248    1.050188 C.3       1 <1>        -0.035575 
     20 C          -6.917712   -0.160689   -1.173789 C.3       1 <1>        -0.035575 
     21 C           2.964485   -0.935176    0.763437 C.ar      1 <1>         0.081990 
     22 C           2.526852   -2.510506   -1.131068 C.ar      1 <1>        -0.053335 
     23 C           4.409478   -0.932978    0.412953 C.ar      1 <1>         0.015986 
     24 C           3.882893   -2.490780   -1.480586 C.ar      1 <1>        -0.031234 
     25 C           4.852073   -1.686486   -0.703053 C.ar      1 <1>         0.078500 
     26 C           5.410540   -0.130005    1.255935 C.3       1 <1>        -0.004353 
     27 C          -1.934416    1.834707   -2.151136 C.3       1 <1>         0.043052 
     28 C           5.648582    1.209689    0.599475 C.2       1 <1>        -0.080815 
     29 C           6.837268    1.828033    0.511313 C.2       1 <1>        -0.079306 
     30 C           6.985642    3.155713   -0.200647 C.3       1 <1>        -0.044040 
     31 C           8.104671    1.256253    1.108064 C.3       1 <1>        -0.044040 
     32 H          -6.021661    1.730415    1.659406 H         1 <1>         0.029604 
     33 H          -6.868584    2.372919    0.223121 H         1 <1>         0.029604 
     34 H           0.495940   -1.570392    1.534064 H         1 <1>         0.037527 
     35 H          -4.287097    2.666913    0.261622 H         1 <1>         0.031568 
     36 H          -4.951784    1.913888   -1.208817 H         1 <1>         0.031568 
     37 H          -0.026591   -0.616896   -1.344383 H         1 <1>         0.032136 
     38 H           0.224831    0.427525    0.087778 H         1 <1>         0.032136 
     39 H          -0.383442   -3.140314   -0.954535 H         1 <1>         0.057101 
     40 H           0.325054   -3.886550    0.513116 H         1 <1>         0.057101 
     41 H          -4.157366   -2.749598    1.219879 H         1 <1>         0.066937 
     42 H          -8.511414   -0.978171    0.947021 H         1 <1>         0.025736 
     43 H          -8.013645    0.262946    2.123985 H         1 <1>         0.025736 
     44 H          -8.853981    0.747692    0.620820 H         1 <1>         0.025736 
     45 H          -5.950592   -0.213822   -1.693075 H         1 <1>         0.025736 
     46 H          -7.402578   -1.142492   -1.284019 H         1 <1>         0.025736 
     47 H          -7.543238    0.598694   -1.667067 H         1 <1>         0.025736 
     48 H           1.844475   -3.110138   -1.721247 H         1 <1>         0.062197 
     49 H           4.236776   -3.068633   -2.327716 H         1 <1>         0.064339 
     50 H           5.014466    0.035164    2.268566 H         1 <1>         0.035721 
     51 H           6.322865   -0.734731    1.358984 H         1 <1>         0.035721 
     52 H          -1.464342    2.791733   -2.420781 H         1 <1>         0.052870 
     53 H          -2.945418    1.808699   -2.582491 H         1 <1>         0.052870 
     54 H          -1.341619    1.019178   -2.589304 H         1 <1>         0.052870 
     55 H           2.694743    0.759399    1.689798 H         1 <1>         0.217338 
     56 H           4.768542    1.691476    0.171835 H         1 <1>         0.057473 
     57 H           6.543722   -0.811113   -1.163928 H         1 <1>         0.217326 
     58 H           7.288892    3.928342    0.522147 H         1 <1>         0.027427 
     59 H           6.056725    3.488908   -0.687913 H         1 <1>         0.027427 
     60 H           7.762832    3.068518   -0.975042 H         1 <1>         0.027427 
     61 H           8.481023    0.446600    0.464832 H         1 <1>         0.027427 
     62 H           7.920542    0.863518    2.119170 H         1 <1>         0.027427 
     63 H           8.889785    2.023184    1.193340 H         1 <1>         0.027427 
@<TRIPOS>BOND
     1    1    6 1    
     2   13    1 1    
     3    2   15 1    
     4   16    2 1    
     5   14    3 1    
     6    3   27 1    
     7   21    4 1    
     8    4   55 1    
     9   25    5 1    
    10    5   57 1    
    11    7    6 1    
    12    6   19 1    
    13    6   20 1    
    14    9    7 1    
    15    7   32 1    
    16    7   33 1    
    17    8   11 1    
    18    8   16 1    
    19   18    8 1    
    20    8   34 1    
    21   10    9 1    
    22    9   35 1    
    23    9   36 1    
    24   10   13 1    
    25   14   10 2    
    26   11   12 1    
    27   11   37 1    
    28   11   38 1    
    29   12   14 1    
    30   12   15 2    
    31   17   13 2    
    32   15   17 1    
    33   16   39 1    
    34   16   40 1    
    35   17   41 1    
    36   21   18 2    
    37   18   22 1    
    38   19   42 1    
    39   19   43 1    
    40   19   44 1    
    41   20   45 1    
    42   20   46 1    
    43   20   47 1    
    44   23   21 1    
    45   22   24 2    
    46   22   48 1    
    47   23   25 2    
    48   23   26 1    
    49   24   25 1    
    50   24   49 1    
    51   26   28 1    
    52   26   50 1    
    53   26   51 1    
    54   27   52 1    
    55   27   53 1    
    56   27   54 1    
    57   28   29 2    
    58   28   56 1    
    59   29   30 1    
    60   29   31 1    
    61   30   58 1    
    62   30   59 1    
    63   30   60 1    
    64   31   61 1    
    65   31   62 1    
    66   31   63 1    
@<TRIPOS>SUBSTRUCTURE
     1 ****        8 TEMP              0 ****  ****    0 ROOT 
@<TRIPOS>NORMAL
@<TRIPOS>FF_PBC
FORCE_FIELD_SETUP_FEATURE Force Field Setup information
v1.0  0 0.000000 0.000000 0.000000 0.000000 0.000000 0.000000 NONE 0 0 0 0 1 0 0 0 0 0 0 0 0
