@<TRIPOS>MOLECULE
MOL004623
   33    34     1     1     0
SMALL
GASTEIGER


@<TRIPOS>ATOM
      1 C           1.585844   -1.341288    0.043318 C.ar      1 <1>         0.047741 
      2 C           0.294595   -2.013073   -0.263979 C.ar      1 <1>         0.088736 
      3 C          -0.884799   -1.363792   -0.065200 C.ar      1 <1>        -0.000353 
      4 C          -0.903071    0.021928    0.452173 C.ar      1 <1>         0.086879 
      5 C           0.260337    0.654427    0.726926 C.ar      1 <1>         0.005620 
      6 C           1.555056   -0.039512    0.526590 C.ar      1 <1>        -0.039168 
      7 O          -2.121383    0.666462    0.669026 O.3       1 <1>        -0.334126 
      8 C          -2.137998    2.089777    0.453725 C.3       1 <1>         0.088836 
      9 C          -0.947791    2.745190    1.117292 C.2       1 <1>        -0.051997 
     10 C           0.201820    2.073888    1.241067 C.2       1 <1>        -0.053356 
     11 C           2.897373   -2.072581   -0.170762 C.2       1 <1>         0.162601 
     12 O           2.908762   -3.171825   -0.700407 O.2       1 <1>        -0.292268 
     13 C           0.230100   -3.400363   -2.188821 C.3       1 <1>         0.043054 
     14 O           0.277667   -3.317388   -0.755380 O.3       1 <1>        -0.347131 
     15 C           4.219950   -1.482651    0.247267 C.3       1 <1>        -0.001323 
     16 C          -3.462227    2.618052    1.061494 C.3       1 <1>        -0.031936 
     17 C          -2.082207    2.375263   -1.069509 C.3       1 <1>        -0.031936 
     18 H          -1.821788   -1.861610   -0.285987 H         1 <1>         0.066956 
     19 H           2.467678    0.493483    0.763620 H         1 <1>         0.063198 
     20 H          -1.019592    3.772483    1.475873 H         1 <1>         0.060052 
     21 H           1.080805    2.534078    1.693004 H         1 <1>         0.062202 
     22 H          -0.692027   -2.942114   -2.578653 H         1 <1>         0.052870 
     23 H           0.243045   -4.463341   -2.470765 H         1 <1>         0.052870 
     24 H           1.102391   -2.904692   -2.642764 H         1 <1>         0.052870 
     25 H           5.035407   -2.204955    0.087534 H         1 <1>         0.030933 
     26 H           4.433381   -0.582389   -0.347602 H         1 <1>         0.030933 
     27 H           4.195454   -1.222063    1.315745 H         1 <1>         0.030933 
     28 H          -3.480992    2.409628    2.142215 H         1 <1>         0.026052 
     29 H          -3.561084    3.703412    0.906936 H         1 <1>         0.026052 
     30 H          -4.321071    2.113589    0.593116 H         1 <1>         0.026052 
     31 H          -1.143960    1.992709   -1.499255 H         1 <1>         0.026052 
     32 H          -2.924130    1.878919   -1.575314 H         1 <1>         0.026052 
     33 H          -2.139845    3.457651   -1.260823 H         1 <1>         0.026052 
@<TRIPOS>BOND
     1    1    2 1    
     2    1    6 2    
     3    1   11 1    
     4    2    3 2    
     5    2   14 1    
     6    3    4 1    
     7    3   18 1    
     8    4    5 2    
     9    4    7 1    
    10    5    6 1    
    11    5   10 1    
    12    6   19 1    
    13    7    8 1    
    14    8    9 1    
    15    8   16 1    
    16    8   17 1    
    17    9   10 2    
    18    9   20 1    
    19   10   21 1    
    20   11   12 2    
    21   11   15 1    
    22   14   13 1    
    23   13   22 1    
    24   13   23 1    
    25   13   24 1    
    26   15   25 1    
    27   15   26 1    
    28   15   27 1    
    29   16   28 1    
    30   16   29 1    
    31   16   30 1    
    32   17   31 1    
    33   17   32 1    
    34   17   33 1    
@<TRIPOS>SUBSTRUCTURE
     1 ****        1 TEMP              0 ****  ****    0 ROOT 
@<TRIPOS>NORMAL
@<TRIPOS>FF_PBC
FORCE_FIELD_SETUP_FEATURE Force Field Setup information
v1.0  0 0.000000 0.000000 0.000000 0.000000 0.000000 0.000000 NONE 0 0 0 0 1 0 0 0 0 0 0 0 0
