@<TRIPOS>MOLECULE
MOL009547
   49    51     1     1     0
SMALL
GASTEIGER


@<TRIPOS>ATOM
      1 O          -0.417616    0.623869   -0.656599 O.3       1 <1>        -0.319113 
      2 O          -1.760743   -1.129918   -0.019245 O.3       1 <1>        -0.321653 
      3 O           0.404480    1.600588    1.351530 O.3       1 <1>        -0.340431 
      4 O           1.995989   -4.674754   -0.189514 O.3       1 <1>        -0.387133 
      5 O           1.893577    3.549163   -0.455480 O.3       1 <1>        -0.384103 
      6 O          -1.701269    3.153879   -1.144503 O.3       1 <1>        -0.386401 
      7 O           0.375424    4.504703    1.668491 O.3       1 <1>        -0.386488 
      8 O           3.282185    0.343988   -1.797268 O.3       1 <1>        -0.390723 
      9 O          -3.179791    2.137183    2.287485 O.3       1 <1>        -0.392366 
     10 O          -1.935565   -5.094370    1.645191 O.3       1 <1>        -0.327671 
     11 O          -0.679770   -5.684143   -0.051621 O.2       1 <1>        -0.259700 
     12 C           0.214945   -1.659142   -1.304447 C.3       1 <1>         0.043562 
     13 C           0.160011   -3.107303   -0.766255 C.3       1 <1>         0.032463 
     14 C          -0.388799   -0.747508   -0.214923 C.3       1 <1>         0.174414 
     15 C           1.506245   -3.334637   -0.024942 C.3       1 <1>         0.081411 
     16 C           1.699967   -1.502124   -1.481769 C.2       1 <1>        -0.037429 
     17 C           2.400109   -2.387913   -0.771947 C.2       1 <1>        -0.053458 
     18 C           0.605173    1.449894   -0.065737 C.3       1 <1>         0.190802 
     19 C          -1.063640   -3.383415    0.076522 C.2       1 <1>         0.053059 
     20 C           0.699715    2.813847   -0.802968 C.3       1 <1>         0.134212 
     21 C          -0.537479    3.685604   -0.480758 C.3       1 <1>         0.114063 
     22 C          -0.717709    3.785012    1.059738 C.3       1 <1>         0.111896 
     23 C          -0.762911    2.371865    1.707334 C.3       1 <1>         0.113007 
     24 C           2.240581   -0.437367   -2.408668 C.3       1 <1>         0.065815 
     25 C          -1.953739   -2.411012    0.338093 C.2       1 <1>         0.052361 
     26 C          -2.091928    1.583563    1.520769 C.3       1 <1>         0.073015 
     27 C          -1.228574   -4.779520    0.554050 C.2       1 <1>         0.289497 
     28 H          -0.350627   -1.548037   -2.244558 H         1 <1>         0.040256 
     29 H           0.148119   -3.779169   -1.642511 H         1 <1>         0.038700 
     30 H           0.126604   -0.866855    0.755673 H         1 <1>         0.092074 
     31 H           1.463126   -3.040000    1.037308 H         1 <1>         0.064386 
     32 H           3.486808   -2.448109   -0.734031 H         1 <1>         0.059804 
     33 H           1.582779    0.959530   -0.166081 H         1 <1>         0.093840 
     34 H           0.704932    2.627688   -1.890938 H         1 <1>         0.067096 
     35 H          -0.345900    4.691913   -0.893539 H         1 <1>         0.064758 
     36 H          -1.644817    4.336351    1.284781 H         1 <1>         0.064673 
     37 H          -0.673723    2.520274    2.796306 H         1 <1>         0.064668 
     38 H           2.604342   -0.918382   -3.331514 H         1 <1>         0.060400 
     39 H           1.437248    0.259850   -2.691139 H         1 <1>         0.060400 
     40 H          -2.899000   -2.597476    0.845692 H         1 <1>         0.089059 
     41 H           1.412592   -5.329417    0.183862 H         1 <1>         0.210232 
     42 H          -2.389844    1.470843    0.468935 H         1 <1>         0.058370 
     43 H          -1.929500    0.575109    1.931404 H         1 <1>         0.058370 
     44 H           2.699223    3.085927   -0.665313 H         1 <1>         0.210110 
     45 H          -2.483557    3.684852   -1.030452 H         1 <1>         0.210005 
     46 H           0.500888    5.384659    1.327842 H         1 <1>         0.210004 
     47 H           4.052092   -0.166823   -1.567614 H         1 <1>         0.209834 
     48 H          -3.480447    2.985404    1.980159 H         1 <1>         0.209508 
     49 H          -2.248685   -4.365331    2.163380 H         1 <1>         0.220546 
@<TRIPOS>BOND
     1    1   14 1    
     2   18    1 1    
     3   14    2 1    
     4    2   25 1    
     5    3   18 1    
     6   23    3 1    
     7   15    4 1    
     8    4   41 1    
     9   20    5 1    
    10    5   44 1    
    11   21    6 1    
    12    6   45 1    
    13   22    7 1    
    14    7   46 1    
    15   24    8 1    
    16    8   47 1    
    17   26    9 1    
    18    9   48 1    
    19   27   10 1    
    20   10   49 1    
    21   27   11 2    
    22   12   13 1    
    23   14   12 1    
    24   12   16 1    
    25   12   28 1    
    26   13   15 1    
    27   13   19 1    
    28   13   29 1    
    29   14   30 1    
    30   17   15 1    
    31   15   31 1    
    32   16   17 2    
    33   16   24 1    
    34   17   32 1    
    35   18   20 1    
    36   18   33 1    
    37   25   19 2    
    38   19   27 1    
    39   21   20 1    
    40   20   34 1    
    41   22   21 1    
    42   21   35 1    
    43   23   22 1    
    44   22   36 1    
    45   23   26 1    
    46   23   37 1    
    47   24   38 1    
    48   24   39 1    
    49   25   40 1    
    50   26   42 1    
    51   26   43 1    
@<TRIPOS>SUBSTRUCTURE
     1 ****       12 TEMP              0 ****  ****    0 ROOT 
@<TRIPOS>NORMAL
@<TRIPOS>FF_PBC
FORCE_FIELD_SETUP_FEATURE Force Field Setup information
v1.0  0 0.000000 0.000000 0.000000 0.000000 0.000000 0.000000 NONE 0 0 0 0 1 0 0 0 0 0 0 0 0
