@<TRIPOS>MOLECULE
MOL000068
   22    21     1     1     0
SMALL
GASTEIGER


@<TRIPOS>ATOM
      1 C           2.315424    0.310091    0.474418 C.2       1 <1>         0.276803 
      2 N           1.352488   -1.896365    0.723318 N.3       1 <1>        -0.319106 
      3 C           1.192558   -0.597990    0.020702 C.3       1 <1>         0.093968 
      4 C          -0.225635    0.037334    0.221538 C.3       1 <1>        -0.019639 
      5 C          -1.271185   -0.629936   -0.730133 C.3       1 <1>        -0.051425 
      6 C          -2.738357   -0.183471   -0.485195 C.3       1 <1>        -0.064973 
      7 C          -0.199789    1.582387    0.023915 C.3       1 <1>        -0.060532 
      8 O           2.784774    0.239163    1.599764 O.2       1 <1>        -0.263428 
      9 O           2.759434    1.189671   -0.430072 O.3       1 <1>        -0.330090 
     10 H           0.645755   -2.637531    0.380169 H         1 <1>         0.118929 
     11 H           1.261342   -1.768780    1.794505 H         1 <1>         0.118929 
     12 H           1.365121   -0.769692   -1.054584 H         1 <1>         0.056483 
     13 H          -0.530440   -0.144012    1.266315 H         1 <1>         0.031794 
     14 H          -1.008267   -0.421570   -1.780064 H         1 <1>         0.026581 
     15 H          -1.249342   -1.721170   -0.592019 H         1 <1>         0.026581 
     16 H          -3.425572   -0.819765   -1.066587 H         1 <1>         0.022987 
     17 H          -2.997206   -0.278443    0.581140 H         1 <1>         0.022987 
     18 H          -2.907954    0.855595   -0.803435 H         1 <1>         0.022987 
     19 H          -1.184372    2.030394    0.215910 H         1 <1>         0.023302 
     20 H           0.496118    2.065526    0.727229 H         1 <1>         0.023302 
     21 H           0.104206    1.829711   -1.004817 H         1 <1>         0.023302 
     22 H           3.460900    1.728955   -0.081916 H         1 <1>         0.220259 
@<TRIPOS>BOND
     1    1    3 1    
     2    1    8 2    
     3    1    9 1    
     4    3    2 1    
     5    2   10 1    
     6    2   11 1    
     7    3    4 1    
     8    3   12 1    
     9    4    5 1    
    10    4    7 1    
    11    4   13 1    
    12    5    6 1    
    13    5   14 1    
    14    5   15 1    
    15    6   16 1    
    16    6   17 1    
    17    6   18 1    
    18    7   19 1    
    19    7   20 1    
    20    7   21 1    
    21    9   22 1    
@<TRIPOS>SUBSTRUCTURE
     1 ****        1 TEMP              0 ****  ****    0 ROOT 
@<TRIPOS>NORMAL
@<TRIPOS>FF_PBC
FORCE_FIELD_SETUP_FEATURE Force Field Setup information
v1.0  0 0.000000 0.000000 0.000000 0.000000 0.000000 0.000000 NONE 0 0 0 0 1 0 0 0 0 0 0 0 0
