@<TRIPOS>MOLECULE
MOL001484
   33    37     1     1     0
SMALL
GASTEIGER


@<TRIPOS>ATOM
      1 O           5.409205    1.187914    0.888893 O.3       1 <1>        -0.335749 
      2 O           4.671686    4.950448    0.056200 O.3       1 <1>        -0.343558 
      3 O          10.959764    1.541014    0.782844 O.3       1 <1>        -0.315041 
      4 O          10.005285   -0.296083    2.006410 O.3       1 <1>        -0.314968 
      5 O          -0.181039    4.460417    0.500232 O.3       1 <1>        -0.359750 
      6 C           6.206743    3.133307   -0.398645 C.3       1 <1>         0.041483 
      7 C           5.079565    2.068097   -0.218453 C.3       1 <1>         0.101494 
      8 C           7.382706    2.353044    0.154334 C.ar      1 <1>        -0.006695 
      9 C           5.904977    4.359330    0.489677 C.3       1 <1>         0.063813 
     10 C           3.703146    2.703375   -0.017624 C.ar      1 <1>         0.012402 
     11 C           6.794494    1.231722    0.895332 C.ar      1 <1>         0.083201 
     12 C           3.559128    4.106855    0.103079 C.ar      1 <1>         0.084294 
     13 C           8.758418    2.548165    0.054645 C.ar      1 <1>        -0.022973 
     14 C           7.591694    0.300868    1.548402 C.ar      1 <1>         0.001299 
     15 C           9.579608    1.536194    0.759716 C.ar      1 <1>         0.109458 
     16 C           2.502820    1.835717    0.050281 C.ar      1 <1>        -0.051186 
     17 C           9.052698    0.523198    1.434000 C.ar      1 <1>         0.111488 
     18 C           2.210728    4.693370    0.278019 C.ar      1 <1>        -0.001557 
     19 C           1.228143    2.401940    0.221162 C.ar      1 <1>        -0.031439 
     20 C           1.075888    3.875136    0.335599 C.ar      1 <1>         0.075045 
     21 C          11.165010    0.574028    1.854278 C.3       1 <1>         0.160032 
     22 H           6.345836    3.430530   -1.451002 H         1 <1>         0.040100 
     23 H           5.045243    1.441758   -1.126562 H         1 <1>         0.065909 
     24 H           6.709765    5.104431    0.392265 H         1 <1>         0.057187 
     25 H           5.824417    4.066534    1.549887 H         1 <1>         0.057187 
     26 H           9.196893    3.374038   -0.493244 H         1 <1>         0.064777 
     27 H           7.175063   -0.531591    2.102673 H         1 <1>         0.067012 
     28 H           2.613218    0.759006   -0.031079 H         1 <1>         0.062270 
     29 H           2.103696    5.768575    0.361953 H         1 <1>         0.066919 
     30 H           0.357223    1.756769    0.269606 H         1 <1>         0.064331 
     31 H          11.274773    1.143018    2.793751 H         1 <1>         0.087950 
     32 H          12.086267   -0.008108    1.698911 H         1 <1>         0.087950 
     33 H          -0.893466    3.832084    0.527962 H         1 <1>         0.217315 
@<TRIPOS>BOND
     1    7    1 1    
     2    1   11 1    
     3    2    9 1    
     4   12    2 1    
     5   15    3 1    
     6    3   21 1    
     7   17    4 1    
     8    4   21 1    
     9   20    5 1    
    10    5   33 1    
    11    7    6 1    
    12    6    8 1    
    13    9    6 1    
    14    6   22 1    
    15   10    7 1    
    16    7   23 1    
    17    8   11 1    
    18    8   13 2    
    19    9   24 1    
    20    9   25 1    
    21   12   10 2    
    22   10   16 1    
    23   11   14 2    
    24   18   12 1    
    25   13   15 1    
    26   13   26 1    
    27   14   17 1    
    28   14   27 1    
    29   15   17 2    
    30   16   19 2    
    31   16   28 1    
    32   18   20 2    
    33   18   29 1    
    34   19   20 1    
    35   19   30 1    
    36   21   31 1    
    37   21   32 1    
@<TRIPOS>SUBSTRUCTURE
     1 ****        1 TEMP              0 ****  ****    0 ROOT 
@<TRIPOS>NORMAL
@<TRIPOS>FF_PBC
FORCE_FIELD_SETUP_FEATURE Force Field Setup information
v1.0  0 0.000000 0.000000 0.000000 0.000000 0.000000 0.000000 NONE 0 0 0 0 1 0 0 0 0 0 0 0 0
