@<TRIPOS>MOLECULE
MOL007245
   34    36     1     1     0
SMALL
GASTEIGER


@<TRIPOS>ATOM
      1 C           0.425133   -0.079340   -0.059023 C.2       1 <1>         0.123852 
      2 C           0.525269   -1.418753    0.024550 C.2       1 <1>         0.154519 
      3 C          -0.675619   -2.273141    0.043468 C.2       1 <1>         0.223296 
      4 C          -2.021015   -1.596473    0.006722 C.ar      1 <1>         0.084561 
      5 C          -1.984667   -0.122604   -0.055901 C.ar      1 <1>         0.099001 
      6 O          -0.763435    0.551069   -0.082840 O.3       1 <1>        -0.305123 
      7 C          -3.179593    0.606112   -0.090178 C.ar      1 <1>        -0.000529 
      8 C          -4.486573   -0.099079   -0.064776 C.ar      1 <1>         0.077519 
      9 C          -4.519600   -1.503811   -0.006719 C.ar      1 <1>        -0.001302 
     10 C          -3.258525   -2.287594    0.030747 C.ar      1 <1>         0.088401 
     11 O          -0.576486   -3.488822    0.093955 O.2       1 <1>        -0.284262 
     12 O           1.730379   -2.004184    0.097208 O.3       1 <1>        -0.342026 
     13 C           2.325218   -1.895930    1.405754 C.3       1 <1>         0.043278 
     14 C           1.642802    0.818805   -0.130759 C.ar      1 <1>         0.008304 
     15 C           1.591924    2.129141    0.562618 C.ar      1 <1>        -0.049598 
     16 C           2.698850    2.998379    0.534667 C.ar      1 <1>        -0.031302 
     17 C           3.934641    2.620602   -0.188162 C.ar      1 <1>         0.072619 
     18 C           3.990737    1.370145   -0.865244 C.ar      1 <1>        -0.031302 
     19 C           2.821839    0.458565   -0.842566 C.ar      1 <1>        -0.049598 
     20 O           5.019550    3.500888   -0.189784 O.3       1 <1>        -0.359832 
     21 O          -5.688706    0.609746   -0.097819 O.3       1 <1>        -0.359667 
     22 O          -3.279185   -3.682017    0.089869 O.3       1 <1>        -0.358954 
     23 H          -3.137378    1.688497   -0.136025 H         1 <1>         0.066947 
     24 H          -5.479748   -2.007036    0.010735 H         1 <1>         0.066923 
     25 H           3.300816   -2.402563    1.368194 H         1 <1>         0.052873 
     26 H           2.491064   -0.856046    1.725856 H         1 <1>         0.052873 
     27 H           1.699809   -2.406540    2.155464 H         1 <1>         0.052873 
     28 H           0.693352    2.420303    1.097157 H         1 <1>         0.062504 
     29 H           2.654732    3.954968    1.044270 H         1 <1>         0.064339 
     30 H           4.885165    1.072845   -1.402034 H         1 <1>         0.064339 
     31 H           2.880205   -0.480347   -1.381465 H         1 <1>         0.062504 
     32 H           5.774910    3.188676   -0.674801 H         1 <1>         0.217313 
     33 H          -5.577762    1.552997   -0.138276 H         1 <1>         0.217316 
     34 H          -4.152573   -4.056625    0.097237 H         1 <1>         0.217342 
@<TRIPOS>BOND
     1    1    2 2    
     2    1    6 1    
     3    1   14 1    
     4    2    3 1    
     5    2   12 1    
     6    3    4 1    
     7    3   11 2    
     8    4    5 1    
     9    4   10 2    
    10    5    6 1    
    11    5    7 2    
    12    7    8 1    
    13    7   23 1    
    14    8    9 2    
    15    8   21 1    
    16    9   10 1    
    17    9   24 1    
    18   10   22 1    
    19   12   13 1    
    20   13   25 1    
    21   13   26 1    
    22   13   27 1    
    23   14   15 1    
    24   14   19 2    
    25   15   16 2    
    26   15   28 1    
    27   16   17 1    
    28   16   29 1    
    29   17   18 2    
    30   17   20 1    
    31   18   19 1    
    32   18   30 1    
    33   19   31 1    
    34   20   32 1    
    35   21   33 1    
    36   22   34 1    
@<TRIPOS>SUBSTRUCTURE
     1 ****        1 TEMP              0 ****  ****    0 ROOT 
@<TRIPOS>NORMAL
@<TRIPOS>FF_PBC
FORCE_FIELD_SETUP_FEATURE Force Field Setup information
v1.0  0 0.000000 0.000000 0.000000 0.000000 0.000000 0.000000 NONE 0 0 0 0 1 0 0 0 0 0 0 0 0
