@<TRIPOS>MOLECULE
MOL004592
   24    23     1     1     0
SMALL
GASTEIGER


@<TRIPOS>ATOM
      1 O          -4.656936   -2.117135    0.000129 O.3       1 <1>        -0.327936 
      2 O          -3.314379   -3.850568    0.000027 O.2       1 <1>        -0.260093 
      3 C           1.551845    0.782831   -0.000071 C.3       1 <1>        -0.053028 
      4 C           0.166095    0.079867    0.000014 C.3       1 <1>        -0.049613 
      5 C           1.400560    2.328712    0.000098 C.3       1 <1>        -0.055902 
      6 C           0.313409   -1.466623   -0.000120 C.3       1 <1>        -0.034288 
      7 C           2.783159    3.031328   -0.000056 C.3       1 <1>        -0.065276 
      8 C          -0.969352   -2.271822   -0.000089 C.2       1 <1>        -0.078363 
      9 C          -2.215714   -1.775542    0.000052 C.2       1 <1>         0.005826 
     10 C          -3.423986   -2.635959    0.000069 C.2       1 <1>         0.283708 
     11 H          -0.845510   -3.356507   -0.000195 H         1 <1>         0.057383 
     12 H          -2.377382   -0.700440    0.000161 H         1 <1>         0.067395 
     13 H          -4.689716   -1.168567    0.000149 H         1 <1>         0.220537 
     14 H           2.119486    0.474121   -0.893425 H         1 <1>         0.026529 
     15 H           2.119691    0.473947    0.893092 H         1 <1>         0.026529 
     16 H          -0.391243    0.395053    0.897532 H         1 <1>         0.026822 
     17 H          -0.391415    0.395192   -0.897348 H         1 <1>         0.026822 
     18 H           0.836762    2.644858    0.893694 H         1 <1>         0.026265 
     19 H           0.836481    2.645031   -0.893260 H         1 <1>         0.026265 
     20 H           0.889238   -1.763918   -0.891531 H         1 <1>         0.030743 
     21 H           0.889373   -1.764060    0.891158 H         1 <1>         0.030743 
     22 H           2.652486    4.125128    0.000086 H         1 <1>         0.022978 
     23 H           3.358323    2.747683   -0.895233 H         1 <1>         0.022978 
     24 H           3.358623    2.747487    0.894866 H         1 <1>         0.022978 
@<TRIPOS>BOND
     1   10    1 1    
     2    1   13 1    
     3   10    2 2    
     4    4    3 1    
     5    3    5 1    
     6    3   14 1    
     7    3   15 1    
     8    6    4 1    
     9    4   16 1    
    10    4   17 1    
    11    5    7 1    
    12    5   18 1    
    13    5   19 1    
    14    8    6 1    
    15    6   20 1    
    16    6   21 1    
    17    7   22 1    
    18    7   23 1    
    19    7   24 1    
    20    9    8 2    
    21    8   11 1    
    22    9   10 1    
    23    9   12 1    
@<TRIPOS>SUBSTRUCTURE
     1 ****        3 TEMP              0 ****  ****    0 ROOT 
@<TRIPOS>NORMAL
@<TRIPOS>FF_PBC
FORCE_FIELD_SETUP_FEATURE Force Field Setup information
v1.0  0 0.000000 0.000000 0.000000 0.000000 0.000000 0.000000 NONE 0 0 0 0 1 0 0 0 0 0 0 0 0
