@<TRIPOS>MOLECULE
MOL004928
   71    75     1     1     0
SMALL
GASTEIGER


@<TRIPOS>ATOM
      1 C           3.311472   -2.563139    1.982621 C.3       1 <1>         0.113849 
      2 C           2.048197   -1.815377    2.507576 C.3       1 <1>         0.117274 
      3 O           0.963624   -2.724271    2.784531 O.3       1 <1>        -0.361023 
      4 C           0.518715   -3.445666    1.625597 C.3       1 <1>         0.110816 
      5 C           1.608838   -4.436677    1.153779 C.3       1 <1>         0.111744 
      6 C           3.028974   -3.793201    1.056863 C.3       1 <1>         0.112059 
      7 C           1.536552   -0.550592    1.766808 C.ar      1 <1>         0.044269 
      8 C           1.238801    0.679993    2.559537 C.ar      1 <1>         0.094068 
      9 C           0.715493    1.818668    1.909420 C.ar      1 <1>         0.082655 
     10 C           0.342043    1.782101    0.484332 C.ar      1 <1>         0.104556 
     11 C           0.534202    0.605506   -0.251299 C.ar      1 <1>         0.045038 
     12 C           1.345906   -0.479116    0.363979 C.ar      1 <1>         0.088992 
     13 O          -0.214939    2.906999   -0.122090 O.3       1 <1>        -0.307351 
     14 C          -0.391704    4.084921    0.494924 C.2       1 <1>         0.093878 
     15 C          -0.080939    4.239613    1.790700 C.2       1 <1>         0.016919 
     16 C           0.470954    3.139688    2.591400 C.2       1 <1>         0.193529 
     17 C          -0.946847    5.203670   -0.371896 C.ar      1 <1>         0.005751 
     18 C          -1.390745    4.847553   -1.745982 C.ar      1 <1>        -0.049682 
     19 C          -1.885797    5.816965   -2.624014 C.ar      1 <1>        -0.031304 
     20 C          -1.992471    7.227882   -2.198488 C.ar      1 <1>         0.072619 
     21 C          -1.588801    7.582371   -0.901181 C.ar      1 <1>        -0.031304 
     22 C          -1.056238    6.552454    0.026087 C.ar      1 <1>        -0.049682 
     23 C          -0.099990    0.472556   -1.660104 C.3       1 <1>         0.117185 
     24 C          -1.660562    0.490259   -1.623560 C.3       1 <1>         0.113846 
     25 C          -2.220858   -0.907183   -1.265573 C.3       1 <1>         0.111970 
     26 C          -1.759245   -1.931517   -2.328593 C.3       1 <1>         0.109327 
     27 C          -0.208841   -1.922236   -2.336328 C.3       1 <1>         0.085115 
     28 O           0.369886   -0.599408   -2.525369 O.3       1 <1>        -0.363572 
     29 C          -0.818235   -4.175932    1.915570 C.3       1 <1>         0.072938 
     30 O           1.192770   -4.919148   -0.141231 O.3       1 <1>        -0.386490 
     31 O           3.400178   -3.557627   -0.309839 O.3       1 <1>        -0.386477 
     32 O           4.035561   -3.019504    3.152053 O.3       1 <1>        -0.386221 
     33 O           1.526787    0.708542    3.930428 O.3       1 <1>        -0.358595 
     34 O           0.730387    3.283833    3.772076 O.2       1 <1>        -0.287017 
     35 O           1.951437   -1.420290   -0.465455 O.3       1 <1>        -0.358948 
     36 O          -2.492885    8.175815   -3.095191 O.3       1 <1>        -0.359832 
     37 C           0.372241   -2.803513   -3.469609 C.3       1 <1>        -0.036137 
     38 O          -2.315955   -3.201754   -1.930687 O.3       1 <1>        -0.386582 
     39 O          -3.659906   -0.837079   -1.241614 O.3       1 <1>        -0.386479 
     40 O          -2.194554    1.452787   -0.693512 O.3       1 <1>        -0.386221 
     41 O          -1.885245   -3.213208    2.040412 O.3       1 <1>        -0.392367 
     42 H           3.943747   -1.830445    1.452284 H         1 <1>         0.064945 
     43 H           2.328248   -1.468351    3.513385 H         1 <1>         0.067491 
     44 H           0.274251   -2.742736    0.830943 H         1 <1>         0.064591 
     45 H           1.634620   -5.268759    1.878755 H         1 <1>         0.064671 
     46 H           3.754894   -4.588432    1.305545 H         1 <1>         0.064684 
     47 H          -0.207513    5.166386    2.337795 H         1 <1>         0.068219 
     48 H          -1.328825    3.819911   -2.086744 H         1 <1>         0.062503 
     49 H          -2.194280    5.538469   -3.626091 H         1 <1>         0.064339 
     50 H          -1.659037    8.613612   -0.566571 H         1 <1>         0.064339 
     51 H          -0.749527    6.889375    1.006960 H         1 <1>         0.062503 
     52 H           0.217152    1.393414   -2.177706 H         1 <1>         0.067490 
     53 H          -2.032016    0.747318   -2.631160 H         1 <1>         0.064945 
     54 H          -1.851585   -1.187828   -0.263503 H         1 <1>         0.064682 
     55 H          -2.157274   -1.633183   -3.313557 H         1 <1>         0.064582 
     56 H           0.077930   -2.393535   -1.389113 H         1 <1>         0.061999 
     57 H          -0.717892   -4.775024    2.834839 H         1 <1>         0.058369 
     58 H          -1.052457   -4.855845    1.078991 H         1 <1>         0.058369 
     59 H           1.834181   -5.500707   -0.538730 H         1 <1>         0.210004 
     60 H           2.733692   -3.045274   -0.749416 H         1 <1>         0.210004 
     61 H           4.894062   -3.388873    2.970058 H         1 <1>         0.210016 
     62 H           1.377832    1.551949    4.350909 H         1 <1>         0.217355 
     63 H           2.140251   -1.002966   -1.307308 H         1 <1>         0.217342 
     64 H          -2.509072    9.064538   -2.760013 H         1 <1>         0.217313 
     65 H           0.043014   -3.848036   -3.394504 H         1 <1>         0.025535 
     66 H           1.471597   -2.790228   -3.413963 H         1 <1>         0.025535 
     67 H           0.061608   -2.406197   -4.447124 H         1 <1>         0.025535 
     68 H          -2.153691   -3.906103   -2.548296 H         1 <1>         0.210002 
     69 H          -4.048447   -1.687795   -1.055031 H         1 <1>         0.210004 
     70 H          -3.149081    1.444170   -0.669357 H         1 <1>         0.210016 
     71 H          -2.736573   -3.613178    2.195282 H         1 <1>         0.209508 
@<TRIPOS>BOND
     1    1    2 1    
     2    1    6 1    
     3    1   32 1    
     4    1   42 1    
     5    2    3 1    
     6    2    7 1    
     7    2   43 1    
     8    3    4 1    
     9    4    5 1    
    10    4   29 1    
    11    4   44 1    
    12    5    6 1    
    13    5   30 1    
    14    5   45 1    
    15    6   31 1    
    16    6   46 1    
    17    7    8 1    
    18    7   12 2    
    19    8    9 2    
    20    8   33 1    
    21    9   10 1    
    22    9   16 1    
    23   10   11 2    
    24   10   13 1    
    25   11   12 1    
    26   11   23 1    
    27   12   35 1    
    28   13   14 1    
    29   14   15 2    
    30   14   17 1    
    31   15   16 1    
    32   15   47 1    
    33   16   34 2    
    34   17   18 1    
    35   17   22 2    
    36   18   19 2    
    37   18   48 1    
    38   19   20 1    
    39   19   49 1    
    40   20   21 2    
    41   20   36 1    
    42   21   22 1    
    43   21   50 1    
    44   22   51 1    
    45   23   24 1    
    46   23   28 1    
    47   23   52 1    
    48   24   25 1    
    49   24   40 1    
    50   24   53 1    
    51   25   26 1    
    52   25   39 1    
    53   25   54 1    
    54   26   27 1    
    55   26   38 1    
    56   26   55 1    
    57   27   28 1    
    58   27   37 1    
    59   27   56 1    
    60   29   41 1    
    61   29   57 1    
    62   29   58 1    
    63   30   59 1    
    64   31   60 1    
    65   32   61 1    
    66   33   62 1    
    67   35   63 1    
    68   36   64 1    
    69   37   65 1    
    70   37   66 1    
    71   37   67 1    
    72   38   68 1    
    73   39   69 1    
    74   40   70 1    
    75   41   71 1    
@<TRIPOS>SUBSTRUCTURE
     1 ****        1 TEMP              0 ****  ****    0 ROOT 
@<TRIPOS>NORMAL
@<TRIPOS>FF_PBC
FORCE_FIELD_SETUP_FEATURE Force Field Setup information
v1.0  0 0.000000 0.000000 0.000000 0.000000 0.000000 0.000000 NONE 0 0 0 0 1 0 0 0 0 0 0 0 0
