@<TRIPOS>MOLECULE
MOL000196
   34    35     1     1     0
SMALL
GASTEIGER


@<TRIPOS>ATOM
      1 C           2.055687    1.840096    1.150445 C.2       1 <1>         0.259313 
      2 C           2.336566    3.308094    1.306089 C.3       1 <1>         0.021443 
      3 O           2.245964    1.060369    2.070368 O.2       1 <1>        -0.265274 
      4 O           1.589352    1.486529   -0.055353 O.3       1 <1>        -0.311511 
      5 C           1.145922    0.115141   -0.170041 C.3       1 <1>         0.074168 
      6 C           0.952937   -0.205276   -1.680137 C.3       1 <1>        -0.022132 
      7 C          -0.543543   -0.613957   -1.762287 C.3       1 <1>        -0.032912 
      8 C          -1.377647    0.687849   -1.592273 C.3       1 <1>        -0.049032 
      9 C          -1.200217    1.001841   -0.080623 C.3       1 <1>        -0.044479 
     10 C          -0.285428   -0.163877    0.402233 C.3       1 <1>         0.000147 
     11 C          -0.783799   -1.382044   -0.435323 C.3       1 <1>        -0.024220 
     12 C          -2.275872   -1.808435   -0.222106 C.3       1 <1>        -0.058979 
     13 C           0.055696   -2.695052   -0.287524 C.3       1 <1>        -0.058979 
     14 C          -0.345367   -0.363424    1.938911 C.3       1 <1>        -0.056682 
     15 H           3.008188    3.484349    2.159680 H         1 <1>         0.033023 
     16 H           2.809359    3.702070    0.394074 H         1 <1>         0.033023 
     17 H           1.388502    3.838070    1.478573 H         1 <1>         0.033023 
     18 H           1.910094   -0.558649    0.252946 H         1 <1>         0.060766 
     19 H           1.604985   -1.024544   -2.022021 H         1 <1>         0.029330 
     20 H           1.180953    0.661447   -2.320765 H         1 <1>         0.029330 
     21 H          -0.790952   -1.171931   -2.680258 H         1 <1>         0.030693 
     22 H          -2.432640    0.517580   -1.858821 H         1 <1>         0.026830 
     23 H          -1.015438    1.506893   -2.234361 H         1 <1>         0.026830 
     24 H          -0.750435    1.992168    0.088549 H         1 <1>         0.027158 
     25 H          -2.163842    1.009145    0.451274 H         1 <1>         0.027158 
     26 H          -2.567260   -2.496265   -1.030452 H         1 <1>         0.023525 
     27 H          -2.388917   -2.344558    0.731949 H         1 <1>         0.023525 
     28 H          -3.014516   -0.999919   -0.213491 H         1 <1>         0.023525 
     29 H           1.139590   -2.599014   -0.408995 H         1 <1>         0.023525 
     30 H          -0.281419   -3.424395   -1.039837 H         1 <1>         0.023525 
     31 H          -0.109182   -3.132271    0.708763 H         1 <1>         0.023525 
     32 H          -1.347507   -0.695960    2.245101 H         1 <1>         0.023604 
     33 H           0.388929   -1.116809    2.260535 H         1 <1>         0.023604 
     34 H          -0.138642    0.584535    2.455379 H         1 <1>         0.023604 
@<TRIPOS>BOND
     1    1    2 1    
     2    1    3 2    
     3    1    4 1    
     4    2   15 1    
     5    2   16 1    
     6    2   17 1    
     7    4    5 1    
     8    5    6 1    
     9    5   10 1    
    10    5   18 1    
    11    6    7 1    
    12    6   19 1    
    13    6   20 1    
    14    7    8 1    
    15    7   11 1    
    16    7   21 1    
    17    8    9 1    
    18    8   22 1    
    19    8   23 1    
    20    9   10 1    
    21    9   24 1    
    22    9   25 1    
    23   10   11 1    
    24   10   14 1    
    25   11   12 1    
    26   11   13 1    
    27   12   26 1    
    28   12   27 1    
    29   12   28 1    
    30   13   29 1    
    31   13   30 1    
    32   13   31 1    
    33   14   32 1    
    34   14   33 1    
    35   14   34 1    
@<TRIPOS>SUBSTRUCTURE
     1 ****        1 TEMP              0 ****  ****    0 ROOT 
@<TRIPOS>NORMAL
@<TRIPOS>FF_PBC
FORCE_FIELD_SETUP_FEATURE Force Field Setup information
v1.0  0 0.000000 0.000000 0.000000 0.000000 0.000000 0.000000 NONE 0 0 0 0 1 0 0 0 0 0 0 0 0
