@<TRIPOS>MOLECULE
MOL004069
   39    41     1     1     0
SMALL
GASTEIGER


@<TRIPOS>ATOM
      1 C          -0.438658    1.148259    0.172294 C.3       1 <1>        -0.029089 
      2 C          -1.078388   -0.129950    0.774717 C.3       1 <1>        -0.034309 
      3 C           1.120881    1.251369    0.233482 C.3       1 <1>        -0.010713 
      4 C          -2.558103    0.053821    0.333811 C.3       1 <1>        -0.040740 
      5 C          -0.447876   -1.459080    0.267495 C.3       1 <1>        -0.043154 
      6 C          -1.077362    1.257748   -1.240888 C.3       1 <1>        -0.048922 
      7 C           1.098466   -1.537491    0.424167 C.3       1 <1>        -0.019847 
      8 C           1.654257    0.716618    1.598028 C.3       1 <1>        -0.043364 
      9 C          -2.465740    0.561824   -1.129322 C.3       1 <1>        -0.049914 
     10 C           1.628470   -0.843751    1.710246 C.3       1 <1>        -0.045729 
     11 C           1.770149    0.435159   -0.858151 C.2       1 <1>        -0.078568 
     12 C           1.760287   -0.897071   -0.769907 C.2       1 <1>        -0.072912 
     13 C           1.546977    2.739850    0.048187 C.3       1 <1>        -0.055825 
     14 C          -3.471827   -1.188333    0.511293 C.3       1 <1>        -0.062154 
     15 C           2.368201   -1.809705   -1.809149 C.3       1 <1>        -0.043507 
     16 H          -0.836508    1.984303    0.775761 H         1 <1>         0.031177 
     17 H          -1.029253   -0.114935    1.877265 H         1 <1>         0.030646 
     18 H          -2.992221    0.865210    0.948054 H         1 <1>         0.030088 
     19 H          -0.703909   -1.644982   -0.787066 H         1 <1>         0.027380 
     20 H          -0.891550   -2.273662    0.864514 H         1 <1>         0.027380 
     21 H          -0.473337    0.728091   -1.993815 H         1 <1>         0.026837 
     22 H          -1.168312    2.308926   -1.560531 H         1 <1>         0.026837 
     23 H           1.381335   -2.605271    0.461701 H         1 <1>         0.034559 
     24 H           1.084330    1.177328    2.421230 H         1 <1>         0.027375 
     25 H           2.699051    1.052740    1.711036 H         1 <1>         0.027375 
     26 H          -3.296595    1.248723   -1.362532 H         1 <1>         0.026803 
     27 H          -2.525992   -0.285655   -1.832031 H         1 <1>         0.026803 
     28 H           2.660258   -1.203380    1.871269 H         1 <1>         0.027124 
     29 H           1.040742   -1.178596    2.580456 H         1 <1>         0.027124 
     30 H           2.234039    0.923357   -1.715631 H         1 <1>         0.057719 
     31 H           1.171939    3.360106    0.876662 H         1 <1>         0.023812 
     32 H           1.148599    3.142193   -0.895472 H         1 <1>         0.023812 
     33 H           2.643850    2.834134    0.022434 H         1 <1>         0.023812 
     34 H          -3.154874   -2.023455   -0.130471 H         1 <1>         0.023250 
     35 H          -4.507719   -0.927190    0.243862 H         1 <1>         0.023250 
     36 H          -3.452249   -1.520746    1.560782 H         1 <1>         0.023250 
     37 H           3.179041   -2.397700   -1.353693 H         1 <1>         0.027445 
     38 H           2.783264   -1.250026   -2.660892 H         1 <1>         0.027445 
     39 H           1.597834   -2.497178   -2.189495 H         1 <1>         0.027445 
@<TRIPOS>BOND
     1    1    2 1    
     2    1    3 1    
     3    1    6 1    
     4    1   16 1    
     5    2    4 1    
     6    2    5 1    
     7    2   17 1    
     8    3    8 1    
     9    3   11 1    
    10    3   13 1    
    11    4    9 1    
    12    4   14 1    
    13    4   18 1    
    14    5    7 1    
    15    5   19 1    
    16    5   20 1    
    17    6    9 1    
    18    6   21 1    
    19    6   22 1    
    20    7   10 1    
    21    7   12 1    
    22    7   23 1    
    23    8   10 1    
    24    8   24 1    
    25    8   25 1    
    26    9   26 1    
    27    9   27 1    
    28   10   28 1    
    29   10   29 1    
    30   11   12 2    
    31   11   30 1    
    32   12   15 1    
    33   13   31 1    
    34   13   32 1    
    35   13   33 1    
    36   14   34 1    
    37   14   35 1    
    38   14   36 1    
    39   15   37 1    
    40   15   38 1    
    41   15   39 1    
@<TRIPOS>SUBSTRUCTURE
     1 ****        1 TEMP              0 ****  ****    0 ROOT 
@<TRIPOS>NORMAL
@<TRIPOS>FF_PBC
FORCE_FIELD_SETUP_FEATURE Force Field Setup information
v1.0  0 0.000000 0.000000 0.000000 0.000000 0.000000 0.000000 NONE 0 0 0 0 1 0 0 0 0 0 0 0 0
