@<TRIPOS>MOLECULE
MOL002241
   51    54     1     1     0
SMALL
GASTEIGER


@<TRIPOS>ATOM
      1 C          -2.215827   -1.151869   -0.123535 C.ar      1 <1>        -0.031198 
      2 C          -1.750143   -2.553808   -0.013664 C.ar      1 <1>        -0.058617 
      3 C          -0.385296   -2.830602    0.144571 C.ar      1 <1>        -0.050071 
      4 C           0.599664   -1.722998    0.202436 C.ar      1 <1>         0.035560 
      5 C           0.163663   -0.375350    0.098572 C.ar      1 <1>         0.062807 
      6 C          -1.282072   -0.078608   -0.069175 C.ar      1 <1>         0.084072 
      7 C           2.070174   -2.030689    0.371826 C.2       1 <1>         0.194676 
      8 C           3.085682   -0.911982    0.418483 C.ar      1 <1>         0.035888 
      9 C           2.655989    0.435896    0.316010 C.ar      1 <1>         0.062826 
     10 C           1.183262    0.740887    0.160049 C.2       1 <1>         0.199438 
     11 C           4.527947   -1.223948    0.569279 C.ar      1 <1>        -0.044702 
     12 C           5.480892   -0.183225    0.609103 C.ar      1 <1>        -0.018686 
     13 C           5.024981    1.223203    0.502061 C.ar      1 <1>        -0.025834 
     14 C           3.658835    1.533978    0.361708 C.ar      1 <1>         0.084402 
     15 O           0.841815    1.910135    0.084455 O.2       1 <1>        -0.286435 
     16 O           2.440340   -3.189196    0.470323 O.2       1 <1>        -0.286609 
     17 C           6.978999   -0.465150    0.757075 C.3       1 <1>         0.075888 
     18 O           7.611913    0.041951   -0.432961 O.3       1 <1>        -0.344057 
     19 C           9.038074   -0.151388   -0.444990 C.3       1 <1>         0.188273 
     20 O           9.601207    0.499633    0.709289 O.3       1 <1>        -0.340522 
     21 C          11.037814    0.385483    0.783751 C.3       1 <1>         0.113005 
     22 C          11.684640    1.067231   -0.449940 C.3       1 <1>         0.111896 
     23 C          11.129862    0.432128   -1.750037 C.3       1 <1>         0.114061 
     24 C           9.582193    0.489629   -1.745206 C.3       1 <1>         0.134122 
     25 C          11.519677    1.046697    2.100834 C.3       1 <1>         0.073015 
     26 O          11.016597    0.296355    3.223910 O.3       1 <1>        -0.392366 
     27 O          11.662760    1.154499   -2.876606 O.3       1 <1>        -0.386401 
     28 O          13.114405    0.909137   -0.387949 O.3       1 <1>        -0.386488 
     29 O           9.087387   -0.200719   -2.909766 O.3       1 <1>        -0.384104 
     30 O          -1.708467    1.248003   -0.171820 O.3       1 <1>        -0.359102 
     31 O           3.277593    2.875141    0.267612 O.3       1 <1>        -0.359093 
     32 H          -3.275796   -0.955817   -0.245603 H         1 <1>         0.064341 
     33 H          -2.469206   -3.366149   -0.056041 H         1 <1>         0.061857 
     34 H          -0.050016   -3.859937    0.224647 H         1 <1>         0.062482 
     35 H           4.845299   -2.258389    0.647017 H         1 <1>         0.062826 
     36 H           5.752151    2.027353    0.531369 H         1 <1>         0.064686 
     37 H           7.167468   -1.543689    0.876398 H         1 <1>         0.061086 
     38 H           7.336247    0.059412    1.657511 H         1 <1>         0.061086 
     39 H           9.264342   -1.231419   -0.451326 H         1 <1>         0.093751 
     40 H          11.343885   -0.673725    0.821532 H         1 <1>         0.064668 
     41 H          11.419715    2.138902   -0.439383 H         1 <1>         0.064673 
     42 H          11.455996   -0.621710   -1.794609 H         1 <1>         0.064758 
     43 H           9.271394    1.548384   -1.767394 H         1 <1>         0.067095 
     44 H          12.622711    1.060642    2.130300 H         1 <1>         0.058370 
     45 H          11.148445    2.084734    2.134798 H         1 <1>         0.058370 
     46 H          11.270034    0.664463    4.065357 H         1 <1>         0.209508 
     47 H          11.336954    0.810427   -3.703958 H         1 <1>         0.210005 
     48 H          13.546084    1.298683   -1.143707 H         1 <1>         0.210004 
     49 H           8.134421   -0.196781   -2.942038 H         1 <1>         0.210110 
     50 H          -2.645024    1.356938   -0.290349 H         1 <1>         0.217340 
     51 H           2.337135    2.999021    0.175877 H         1 <1>         0.217340 
@<TRIPOS>BOND
     1    1    2 1    
     2    1    6 2    
     3    1   32 1    
     4    2    3 2    
     5    2   33 1    
     6    3    4 1    
     7    3   34 1    
     8    4    5 2    
     9    4    7 1    
    10    5    6 1    
    11    5   10 1    
    12    6   30 1    
    13    7    8 1    
    14    7   16 2    
    15    8    9 2    
    16    8   11 1    
    17    9   10 1    
    18    9   14 1    
    19   10   15 2    
    20   11   12 2    
    21   11   35 1    
    22   12   13 1    
    23   12   17 1    
    24   13   14 2    
    25   13   36 1    
    26   14   31 1    
    27   17   18 1    
    28   17   37 1    
    29   17   38 1    
    30   18   19 1    
    31   19   20 1    
    32   19   24 1    
    33   19   39 1    
    34   20   21 1    
    35   21   22 1    
    36   21   25 1    
    37   21   40 1    
    38   22   23 1    
    39   22   28 1    
    40   22   41 1    
    41   23   24 1    
    42   23   27 1    
    43   23   42 1    
    44   24   29 1    
    45   24   43 1    
    46   25   26 1    
    47   25   44 1    
    48   25   45 1    
    49   26   46 1    
    50   27   47 1    
    51   28   48 1    
    52   29   49 1    
    53   30   50 1    
    54   31   51 1    
@<TRIPOS>SUBSTRUCTURE
     1 ****        1 TEMP              0 ****  ****    0 ROOT 
@<TRIPOS>NORMAL
@<TRIPOS>FF_PBC
FORCE_FIELD_SETUP_FEATURE Force Field Setup information
v1.0  0 0.000000 0.000000 0.000000 0.000000 0.000000 0.000000 NONE 0 0 0 0 1 0 0 0 0 0 0 0 0
