@<TRIPOS>MOLECULE
MOL002238
   75    79     1     1     0
SMALL
GASTEIGER


@<TRIPOS>ATOM
      1 C          -2.499396   -0.763312    0.064194 C.2       1 <1>         0.208393 
      2 C          -2.679110   -2.183518   -0.272796 C.2       1 <1>         0.119190 
      3 C          -1.606706   -3.000444   -0.296039 C.2       1 <1>        -0.029289 
      4 C          -0.192453   -2.487355    0.020203 C.3       1 <1>         0.013071 
      5 C          -0.068026   -0.971827    0.089140 C.2       1 <1>        -0.052516 
      6 C          -1.155635   -0.192932    0.130895 C.2       1 <1>        -0.011999 
      7 C           0.826740   -3.056702   -1.035162 C.3       1 <1>        -0.039808 
      8 C           2.035088   -2.150680   -1.446589 C.3       1 <1>        -0.048080 
      9 C           2.502612   -1.303440   -0.233707 C.3       1 <1>        -0.028538 
     10 C           1.318372   -0.339561    0.083775 C.3       1 <1>        -0.015309 
     11 C           3.953928   -0.633032   -0.168550 C.3       1 <1>        -0.023016 
     12 C           3.918456    0.939182   -0.128846 C.3       1 <1>        -0.023032 
     13 C           3.015669    1.350367    1.095782 C.3       1 <1>        -0.046298 
     14 C           1.676486    0.555929    1.294456 C.3       1 <1>        -0.045683 
     15 C           4.866375   -1.046796   -1.390252 C.3       1 <1>        -0.046343 
     16 C           6.011153   -0.062080   -1.821932 C.3       1 <1>        -0.046831 
     17 C           6.595161    0.753175   -0.638632 C.3       1 <1>        -0.028639 
     18 C           5.394386    1.554390    0.011590 C.3       1 <1>        -0.028760 
     19 C           7.622085    1.836228   -1.119061 C.3       1 <1>        -0.046390 
     20 C           8.168083    2.646337    0.096358 C.3       1 <1>        -0.038076 
     21 C           7.043648    3.322154    0.948328 C.3       1 <1>         0.053451 
     22 C           5.883436    2.318326    1.288890 C.3       1 <1>        -0.034736 
     23 O          -3.462548   -0.041859    0.271903 O.2       1 <1>        -0.285173 
     24 O          -3.925051   -2.614933   -0.547446 O.3       1 <1>        -0.356353 
     25 C          -1.744718   -4.484520   -0.604061 C.3       1 <1>        -0.040125 
     26 C           0.022253   -2.985914    1.487565 C.3       1 <1>        -0.052000 
     27 C           7.432671   -0.276881    0.212815 C.3       1 <1>        -0.059290 
     28 C           4.557169   -1.130426    1.204597 C.3       1 <1>        -0.058783 
     29 C           7.662689    3.875461    2.266594 C.3       1 <1>        -0.050489 
     30 C           6.488925    4.528484    0.203442 C.2       1 <1>         0.265550 
     31 O           5.523951    5.208218    0.829582 O.3       1 <1>        -0.330857 
     32 O           6.889926    4.869741   -0.898773 O.2       1 <1>        -0.264567 
     33 C           3.256725    1.483761   -1.472443 C.3       1 <1>        -0.058784 
     34 H          -1.091647    0.892550    0.196827 H         1 <1>         0.065645 
     35 H           1.241424   -3.995127   -0.631600 H         1 <1>         0.027675 
     36 H           0.302202   -3.304796   -1.973284 H         1 <1>         0.027675 
     37 H           2.827393   -2.826344   -1.810219 H         1 <1>         0.026864 
     38 H           1.748412   -1.486604   -2.278080 H         1 <1>         0.026864 
     39 H           2.508215   -2.103563    0.513107 H         1 <1>         0.031193 
     40 H           1.157656    0.341699   -0.754320 H         1 <1>         0.034883 
     41 H           2.798340    2.428689    1.018605 H         1 <1>         0.027095 
     42 H           3.566458    1.228593    2.040104 H         1 <1>         0.027095 
     43 H           0.866193    1.273717    1.499228 H         1 <1>         0.027124 
     44 H           1.718182   -0.108395    2.172144 H         1 <1>         0.027124 
     45 H           5.275341   -2.052072   -1.204879 H         1 <1>         0.027095 
     46 H           4.274921   -1.141181   -2.311275 H         1 <1>         0.027095 
     47 H           5.658005    0.649987   -2.581424 H         1 <1>         0.027078 
     48 H           6.814043   -0.634637   -2.316512 H         1 <1>         0.027078 
     49 H           5.269975    2.467107   -0.579290 H         1 <1>         0.031175 
     50 H           8.467844    1.373820   -1.654121 H         1 <1>         0.027089 
     51 H           7.162027    2.523068   -1.847022 H         1 <1>         0.027089 
     52 H           8.864019    3.418080   -0.272752 H         1 <1>         0.027550 
     53 H           8.769335    1.986643    0.737918 H         1 <1>         0.027550 
     54 H           6.204709    1.619401    2.070427 H         1 <1>         0.027833 
     55 H           5.083237    2.928289    1.734779 H         1 <1>         0.027833 
     56 H          -4.062657   -3.515758   -0.807801 H         1 <1>         0.217459 
     57 H          -2.473612   -4.943325    0.081284 H         1 <1>         0.027553 
     58 H          -2.083679   -4.617424   -1.642728 H         1 <1>         0.027553 
     59 H          -0.821015   -5.064467   -0.486279 H         1 <1>         0.027553 
     60 H          -0.823496   -2.654785    2.111800 H         1 <1>         0.024120 
     61 H           0.925396   -2.597840    1.972536 H         1 <1>         0.024120 
     62 H           0.066628   -4.083519    1.542212 H         1 <1>         0.024120 
     63 H           6.997440   -1.280980    0.256709 H         1 <1>         0.023516 
     64 H           7.632528    0.044303    1.242008 H         1 <1>         0.023516 
     65 H           8.415027   -0.451097   -0.251560 H         1 <1>         0.023516 
     66 H           5.358390   -0.510041    1.598762 H         1 <1>         0.023533 
     67 H           4.918304   -2.166865    1.123615 H         1 <1>         0.023533 
     68 H           3.830164   -1.134987    2.027964 H         1 <1>         0.023533 
     69 H           8.106047    3.063361    2.863007 H         1 <1>         0.023986 
     70 H           6.896747    4.370714    2.883497 H         1 <1>         0.023986 
     71 H           8.452402    4.608948    2.040308 H         1 <1>         0.023986 
     72 H           5.217614    5.947555    0.316104 H         1 <1>         0.220226 
     73 H           2.849434    0.691358   -2.109752 H         1 <1>         0.023533 
     74 H           2.446198    2.197858   -1.263851 H         1 <1>         0.023533 
     75 H           3.909417    2.029830   -2.166215 H         1 <1>         0.023533 
@<TRIPOS>BOND
     1    1    2 1    
     2    1    6 1    
     3    1   23 2    
     4    2    3 2    
     5    2   24 1    
     6    3    4 1    
     7    3   25 1    
     8    4    5 1    
     9    4    7 1    
    10    4   26 1    
    11    5    6 2    
    12    5   10 1    
    13    6   34 1    
    14    7    8 1    
    15    7   35 1    
    16    7   36 1    
    17    8    9 1    
    18    8   37 1    
    19    8   38 1    
    20    9   10 1    
    21    9   11 1    
    22    9   39 1    
    23   10   14 1    
    24   10   40 1    
    25   11   12 1    
    26   11   15 1    
    27   11   28 1    
    28   12   13 1    
    29   12   18 1    
    30   12   33 1    
    31   13   14 1    
    32   13   41 1    
    33   13   42 1    
    34   14   43 1    
    35   14   44 1    
    36   15   16 1    
    37   15   45 1    
    38   15   46 1    
    39   16   17 1    
    40   16   47 1    
    41   16   48 1    
    42   17   18 1    
    43   17   19 1    
    44   17   27 1    
    45   18   22 1    
    46   18   49 1    
    47   19   20 1    
    48   19   50 1    
    49   19   51 1    
    50   20   21 1    
    51   20   52 1    
    52   20   53 1    
    53   21   22 1    
    54   21   29 1    
    55   21   30 1    
    56   22   54 1    
    57   22   55 1    
    58   24   56 1    
    59   25   57 1    
    60   25   58 1    
    61   25   59 1    
    62   26   60 1    
    63   26   61 1    
    64   26   62 1    
    65   27   63 1    
    66   27   64 1    
    67   27   65 1    
    68   28   66 1    
    69   28   67 1    
    70   28   68 1    
    71   29   69 1    
    72   29   70 1    
    73   29   71 1    
    74   30   31 1    
    75   30   32 2    
    76   31   72 1    
    77   33   73 1    
    78   33   74 1    
    79   33   75 1    
@<TRIPOS>SUBSTRUCTURE
     1 ****        1 TEMP              0 ****  ****    0 ROOT 
@<TRIPOS>NORMAL
@<TRIPOS>FF_PBC
FORCE_FIELD_SETUP_FEATURE Force Field Setup information
v1.0  0 0.000000 0.000000 0.000000 0.000000 0.000000 0.000000 NONE 0 0 0 0 1 0 0 0 0 0 0 0 0
