@<TRIPOS>MOLECULE
MOL002933
   34    36     1     1     0
SMALL
GASTEIGER


@<TRIPOS>ATOM
      1 C           1.025918    0.223088    0.017697 C.2       1 <1>         0.093974 
      2 C           1.550638    1.457526    0.048886 C.2       1 <1>         0.016921 
      3 C           0.706242    2.652135    0.061542 C.2       1 <1>         0.193595 
      4 O           1.212960    3.761767    0.090013 O.2       1 <1>        -0.287016 
      5 C          -0.785373    2.449000    0.038218 C.ar      1 <1>         0.084493 
      6 C          -1.715528    3.603904    0.048949 C.ar      1 <1>         0.088482 
      7 C          -3.098628    3.364261    0.026336 C.ar      1 <1>         0.001243 
      8 C          -3.608224    1.976933   -0.007593 C.ar      1 <1>         0.107532 
      9 C          -2.718285    0.875355   -0.017806 C.ar      1 <1>         0.136793 
     10 C          -1.242759    1.115528    0.005994 C.ar      1 <1>         0.128723 
     11 O          -0.315970    0.051795   -0.003028 O.3       1 <1>        -0.305125 
     12 C           1.903296   -1.021266    0.004430 C.ar      1 <1>         0.005752 
     13 C           1.249323   -2.355191   -0.029990 C.ar      1 <1>        -0.049682 
     14 C           1.990998   -3.545983   -0.043950 C.ar      1 <1>        -0.031304 
     15 C           3.468610   -3.513413   -0.024587 C.ar      1 <1>         0.072619 
     16 C           4.120048   -2.267538    0.008087 C.ar      1 <1>        -0.031304 
     17 C           3.336526   -1.008065    0.022829 C.ar      1 <1>        -0.049682 
     18 O          -3.295438   -0.402970   -0.050454 O.3       1 <1>        -0.342928 
     19 C          -2.516202   -1.601035   -0.063803 C.3       1 <1>         0.043243 
     20 O           4.180853   -4.715711   -0.039123 O.3       1 <1>        -0.359832 
     21 O          -4.988958    1.766997   -0.029568 O.3       1 <1>        -0.357150 
     22 O          -1.208245    4.905619    0.081161 O.3       1 <1>        -0.358953 
     23 H           2.610746    1.686802    0.067162 H         1 <1>         0.068219 
     24 H          -3.808927    4.183378    0.033290 H         1 <1>         0.067008 
     25 H           0.173580   -2.428890   -0.045044 H         1 <1>         0.062503 
     26 H           1.484880   -4.505370   -0.069178 H         1 <1>         0.064339 
     27 H           5.203670   -2.216094    0.022837 H         1 <1>         0.064339 
     28 H           3.905200   -0.089767    0.047996 H         1 <1>         0.062503 
     29 H          -3.206748   -2.456576   -0.089531 H         1 <1>         0.052872 
     30 H          -1.912382   -1.669301    0.853229 H         1 <1>         0.052872 
     31 H          -1.888746   -1.633653   -0.966821 H         1 <1>         0.052872 
     32 H           5.125647   -4.612951   -0.025044 H         1 <1>         0.217313 
     33 H          -5.204500    0.838882   -0.050619 H         1 <1>         0.217424 
     34 H          -1.864925    5.592973    0.086117 H         1 <1>         0.217342 
@<TRIPOS>BOND
     1    1    2 2    
     2    1   11 1    
     3    1   12 1    
     4    2    3 1    
     5    2   23 1    
     6    3    4 2    
     7    3    5 1    
     8    5    6 1    
     9    5   10 2    
    10    6    7 2    
    11    6   22 1    
    12    7    8 1    
    13    7   24 1    
    14    8    9 2    
    15    8   21 1    
    16    9   10 1    
    17    9   18 1    
    18   10   11 1    
    19   12   13 1    
    20   12   17 2    
    21   13   14 2    
    22   13   25 1    
    23   14   15 1    
    24   14   26 1    
    25   15   16 2    
    26   15   20 1    
    27   16   17 1    
    28   16   27 1    
    29   17   28 1    
    30   18   19 1    
    31   19   29 1    
    32   19   30 1    
    33   19   31 1    
    34   20   32 1    
    35   21   33 1    
    36   22   34 1    
@<TRIPOS>SUBSTRUCTURE
     1 ****        1 TEMP              0 ****  ****    0 ROOT 
@<TRIPOS>NORMAL
@<TRIPOS>FF_PBC
FORCE_FIELD_SETUP_FEATURE Force Field Setup information
v1.0  0 0.000000 0.000000 0.000000 0.000000 0.000000 0.000000 NONE 0 0 0 0 1 0 0 0 0 0 0 0 0
