@<TRIPOS>MOLECULE
MOL001797
   77    81     1     1     0
SMALL
GASTEIGER


@<TRIPOS>ATOM
      1 C           2.744015   -0.638494   -0.383411 C.ar      1 <1>         0.092370 
      2 C           2.795588   -1.699700   -1.220752 C.ar      1 <1>         0.077223 
      3 O           3.909422   -0.057309    0.123509 O.3       1 <1>        -0.335583 
      4 C           1.430907   -0.096244    0.025179 C.ar      1 <1>        -0.000657 
      5 C           4.147327   -2.293748   -1.536140 C.2       1 <1>         0.170906 
      6 C           1.543536   -2.251482   -1.803603 C.ar      1 <1>         0.087976 
      7 C           5.186937   -0.351899   -0.472701 C.3       1 <1>         0.097317 
      8 C           0.283718   -0.634062   -0.437869 C.ar      1 <1>         0.084385 
      9 C           5.324715   -1.873161   -0.704841 C.3       1 <1>         0.041566 
     10 O           4.265126   -3.108754   -2.436577 O.2       1 <1>        -0.291783 
     11 C           0.346625   -1.737167   -1.431930 C.ar      1 <1>        -0.000944 
     12 O           1.577042   -3.289578   -2.737907 O.3       1 <1>        -0.358966 
     13 C           5.519622    0.413003   -1.768685 C.ar      1 <1>        -0.013113 
     14 O          -0.924978   -0.141362    0.055624 O.3       1 <1>        -0.312375 
     15 C           6.901925    0.924868   -1.961949 C.ar      1 <1>        -0.025869 
     16 C           4.564824    0.647905   -2.795093 C.ar      1 <1>        -0.026117 
     17 C          -2.191793   -0.734818   -0.266075 C.3       1 <1>         0.194011 
     18 C           7.275519    1.608191   -3.128283 C.ar      1 <1>         0.078589 
     19 C           4.961285    1.352830   -4.042025 C.ar      1 <1>         0.075365 
     20 C          -3.210858   -0.164555    0.752708 C.3       1 <1>         0.141013 
     21 O          -2.481183   -0.370750   -1.626479 O.3       1 <1>        -0.340157 
     22 C           6.269555    1.817360   -4.199984 C.ar      1 <1>        -0.001904 
     23 O           8.592978    2.071795   -3.242292 O.3       1 <1>        -0.347820 
     24 O           4.042943    1.557409   -5.072068 O.3       1 <1>        -0.359740 
     25 O          -2.871486   -0.828275    1.992349 O.3       1 <1>        -0.337748 
     26 C          -4.661756   -0.492628    0.313226 C.3       1 <1>         0.114441 
     27 C          -3.781961   -0.804696   -2.058431 C.3       1 <1>         0.113017 
     28 C           9.046016    2.753429   -4.422817 C.3       1 <1>         0.043027 
     29 C          -3.377177   -0.203748    3.184274 C.3       1 <1>         0.188431 
     30 C          -4.877414   -0.144155   -1.181507 C.3       1 <1>         0.111906 
     31 O          -5.613846    0.253230    1.098392 O.3       1 <1>        -0.386391 
     32 C          -3.939231   -0.387138   -3.541546 C.3       1 <1>         0.073015 
     33 C          -2.963164   -1.104439    4.373854 C.3       1 <1>         0.134123 
     34 O          -2.717399    1.075848    3.257434 O.3       1 <1>        -0.343067 
     35 O          -6.191270   -0.615463   -1.540575 O.3       1 <1>        -0.386488 
     36 O          -5.274347   -0.699758   -3.987321 O.3       1 <1>        -0.392366 
     37 C          -3.321283   -0.395617    5.706212 C.3       1 <1>         0.113972 
     38 O          -3.629094   -2.381606    4.263785 O.3       1 <1>        -0.384104 
     39 C          -2.991544    1.816721    4.460330 C.3       1 <1>         0.087307 
     40 C          -2.632099    0.993272    5.732783 C.3       1 <1>         0.109478 
     41 O          -4.753549   -0.307902    5.843024 O.3       1 <1>        -0.386402 
     42 C          -4.425932    2.413666    4.463154 C.3       1 <1>        -0.036060 
     43 O          -1.212527    0.744671    5.810704 O.3       1 <1>        -0.386579 
     44 H           1.391293    0.731259    0.723692 H         1 <1>         0.066941 
     45 H           5.919143   -0.040774    0.290067 H         1 <1>         0.065573 
     46 H           5.280529   -2.410207    0.256555 H         1 <1>         0.037400 
     47 H           6.279472   -2.110768   -1.201738 H         1 <1>         0.037400 
     48 H          -0.553524   -2.145264   -1.875480 H         1 <1>         0.066933 
     49 H           2.458986   -3.583909   -2.948788 H         1 <1>         0.217342 
     50 H           7.652145    0.778233   -1.192382 H         1 <1>         0.064685 
     51 H           3.541556    0.316365   -2.687317 H         1 <1>         0.064677 
     52 H          -2.158505   -1.829364   -0.127643 H         1 <1>         0.094170 
     53 H          -3.070973    0.928036    0.787152 H         1 <1>         0.067490 
     54 H           6.521242    2.326795   -5.123026 H         1 <1>         0.066909 
     55 H           3.234753    1.068932   -4.965302 H         1 <1>         0.217315 
     56 H          -4.818313   -1.576430    0.456176 H         1 <1>         0.064768 
     57 H          -3.880244   -1.901087   -1.996180 H         1 <1>         0.064668 
     58 H          10.104129    3.015392   -4.278013 H         1 <1>         0.052870 
     59 H           8.969560    2.102298   -5.306541 H         1 <1>         0.052870 
     60 H           8.479966    3.682871   -4.586230 H         1 <1>         0.052870 
     61 H          -4.474370   -0.138985    3.169670 H         1 <1>         0.093753 
     62 H          -4.818035    0.952670   -1.291424 H         1 <1>         0.064673 
     63 H          -6.511601    0.061069    0.840761 H         1 <1>         0.210005 
     64 H          -3.747568    0.695737   -3.632878 H         1 <1>         0.058370 
     65 H          -3.186223   -0.926945   -4.141428 H         1 <1>         0.058370 
     66 H          -1.870446   -1.246790    4.306551 H         1 <1>         0.067095 
     67 H          -6.379908   -0.481413   -2.467136 H         1 <1>         0.210004 
     68 H          -5.415604   -0.485899   -4.906007 H         1 <1>         0.209508 
     69 H          -2.921880   -1.004965    6.537027 H         1 <1>         0.064757 
     70 H          -3.398506   -2.985764    4.961635 H         1 <1>         0.210110 
     71 H          -2.306639    2.680378    4.420326 H         1 <1>         0.062075 
     72 H          -2.947765    1.539885    6.637984 H         1 <1>         0.064584 
     73 H          -5.033871    0.080168    6.666178 H         1 <1>         0.210005 
     74 H          -4.559796    3.072502    5.335040 H         1 <1>         0.025536 
     75 H          -4.563670    3.012547    3.549252 H         1 <1>         0.025536 
     76 H          -5.215767    1.652869    4.486683 H         1 <1>         0.025536 
     77 H          -0.683497    1.535470    5.850178 H         1 <1>         0.210002 
@<TRIPOS>BOND
     1    1    2 2    
     2    1    3 1    
     3    1    4 1    
     4    2    5 1    
     5    2    6 1    
     6    3    7 1    
     7    4    8 2    
     8    4   44 1    
     9    5    9 1    
    10    5   10 2    
    11    6   11 2    
    12    6   12 1    
    13    7    9 1    
    14    7   13 1    
    15    7   45 1    
    16    8   11 1    
    17    8   14 1    
    18    9   46 1    
    19    9   47 1    
    20   11   48 1    
    21   12   49 1    
    22   13   15 1    
    23   13   16 2    
    24   14   17 1    
    25   15   18 2    
    26   15   50 1    
    27   16   19 1    
    28   16   51 1    
    29   17   20 1    
    30   17   21 1    
    31   17   52 1    
    32   18   22 1    
    33   18   23 1    
    34   19   22 2    
    35   19   24 1    
    36   20   25 1    
    37   20   26 1    
    38   20   53 1    
    39   21   27 1    
    40   22   54 1    
    41   23   28 1    
    42   24   55 1    
    43   25   29 1    
    44   26   30 1    
    45   26   31 1    
    46   26   56 1    
    47   27   30 1    
    48   27   32 1    
    49   27   57 1    
    50   28   58 1    
    51   28   59 1    
    52   28   60 1    
    53   29   33 1    
    54   29   34 1    
    55   29   61 1    
    56   30   35 1    
    57   30   62 1    
    58   31   63 1    
    59   32   36 1    
    60   32   64 1    
    61   32   65 1    
    62   33   37 1    
    63   33   38 1    
    64   33   66 1    
    65   34   39 1    
    66   35   67 1    
    67   36   68 1    
    68   37   40 1    
    69   37   41 1    
    70   37   69 1    
    71   38   70 1    
    72   39   40 1    
    73   39   42 1    
    74   39   71 1    
    75   40   43 1    
    76   40   72 1    
    77   41   73 1    
    78   42   74 1    
    79   42   75 1    
    80   42   76 1    
    81   43   77 1    
@<TRIPOS>SUBSTRUCTURE
     1 ****        1 TEMP              0 ****  ****    0 ROOT 
@<TRIPOS>NORMAL
@<TRIPOS>FF_PBC
FORCE_FIELD_SETUP_FEATURE Force Field Setup information
v1.0  0 0.000000 0.000000 0.000000 0.000000 0.000000 0.000000 NONE 0 0 0 0 1 0 0 0 0 0 0 0 0
