@<TRIPOS>MOLECULE
MOL010123
   20    19     1     1     0
SMALL
GASTEIGER


@<TRIPOS>ATOM
      1 C           0.284347   -0.199097   -0.237332 C.3       1 <1>         0.065012 
      2 O          -0.914870    0.543364    0.075111 O.3       1 <1>        -0.312369 
      3 C           1.414453    0.864811   -0.336872 C.3       1 <1>        -0.029113 
      4 C           0.574680   -1.249052    0.871298 C.3       1 <1>        -0.038109 
      5 C          -2.061613   -0.139368   -0.063641 C.2       1 <1>         0.259287 
      6 C           2.791924    0.286546   -0.758452 C.3       1 <1>        -0.062924 
      7 C          -3.299187    0.601764    0.360277 C.3       1 <1>         0.021443 
      8 O          -2.132752   -1.281081   -0.490606 O.2       1 <1>        -0.265274 
      9 H           0.196984   -0.693190   -1.221892 H         1 <1>         0.059905 
     10 H           1.514401    1.387415    0.628464 H         1 <1>         0.028752 
     11 H           1.108229    1.609461   -1.090898 H         1 <1>         0.028752 
     12 H           1.458610   -1.853413    0.621594 H         1 <1>         0.025466 
     13 H          -0.269734   -1.940703    1.001114 H         1 <1>         0.025466 
     14 H           0.749894   -0.739808    1.830908 H         1 <1>         0.025466 
     15 H           3.504016    1.109741   -0.928658 H         1 <1>         0.023057 
     16 H           2.699035   -0.291370   -1.690984 H         1 <1>         0.023057 
     17 H           3.210808   -0.362903    0.024310 H         1 <1>         0.023057 
     18 H          -3.121975    1.687663    0.367353 H         1 <1>         0.033023 
     19 H          -4.123946    0.381542   -0.333574 H         1 <1>         0.033023 
     20 H          -3.583407    0.277779    1.371877 H         1 <1>         0.033023 
@<TRIPOS>BOND
     1    1    2 1    
     2    1    3 1    
     3    1    4 1    
     4    1    9 1    
     5    2    5 1    
     6    3    6 1    
     7    3   10 1    
     8    3   11 1    
     9    4   12 1    
    10    4   13 1    
    11    4   14 1    
    12    5    7 1    
    13    5    8 2    
    14    6   15 1    
    15    6   16 1    
    16    6   17 1    
    17    7   18 1    
    18    7   19 1    
    19    7   20 1    
@<TRIPOS>SUBSTRUCTURE
     1 ****        1 TEMP              0 ****  ****    0 ROOT 
@<TRIPOS>NORMAL
@<TRIPOS>FF_PBC
FORCE_FIELD_SETUP_FEATURE Force Field Setup information
v1.0  0 0.000000 0.000000 0.000000 0.000000 0.000000 0.000000 NONE 0 0 0 0 1 0 0 0 0 0 0 0 0
