@<TRIPOS>MOLECULE
MOL008698
   51    51     1     1     0
SMALL
GASTEIGER


@<TRIPOS>ATOM
      1 C           0.032330   -4.846822    1.299545 C.ar      1 <1>        -0.027729 
      2 C           0.457370   -6.188454    1.226343 C.ar      1 <1>        -0.024481 
      3 C          -1.345210   -4.550204    1.760096 C.ar      1 <1>        -0.054485 
      4 C           0.983902   -3.705674    0.916005 C.3       1 <1>         0.036910 
      5 C          -0.439461   -7.307623    1.597587 C.ar      1 <1>         0.105709 
      6 C          -2.216742   -5.595701    2.096552 C.ar      1 <1>        -0.029091 
      7 N           0.302817   -2.587973    0.267590 N.am      1 <1>        -0.311195 
      8 C          -1.779171   -7.014403    2.019850 C.ar      1 <1>         0.102453 
      9 O           0.078202   -8.610314    1.515430 O.3       1 <1>        -0.345340 
     10 C           0.850856   -1.352963    0.308402 C.2       1 <1>         0.213280 
     11 O          -2.667582   -8.038919    2.361238 O.3       1 <1>        -0.357269 
     12 C          -0.623158   -9.761879    2.009994 C.3       1 <1>         0.043136 
     13 C           0.110868   -0.215572   -0.354541 C.3       1 <1>         0.023959 
     14 O           1.915250   -1.137471    0.865913 O.2       1 <1>        -0.275811 
     15 C           0.911663    1.114635   -0.320919 C.3       1 <1>        -0.044794 
     16 C           0.101378    2.301030   -0.913262 C.3       1 <1>        -0.052620 
     17 C           0.951397    3.603640   -0.942093 C.3       1 <1>        -0.053037 
     18 C           0.125549    4.826355   -1.433850 C.3       1 <1>        -0.052824 
     19 C           1.009943    6.102107   -1.537552 C.3       1 <1>        -0.050709 
     20 C           0.253062    7.358886   -2.067235 C.3       1 <1>        -0.046721 
     21 C          -0.829597    7.870673   -1.074161 C.3       1 <1>        -0.062665 
     22 C           1.266394    8.502617   -2.355019 C.3       1 <1>        -0.062665 
     23 H           1.460745   -6.429330    0.894273 H         1 <1>         0.064734 
     24 H          -1.682852   -3.520950    1.841525 H         1 <1>         0.062160 
     25 H           1.769638   -4.065677    0.234201 H         1 <1>         0.051153 
     26 H           1.458361   -3.387299    1.857672 H         1 <1>         0.051153 
     27 H          -3.223633   -5.356066    2.422761 H         1 <1>         0.064412 
     28 H          -0.536547   -2.763859   -0.248537 H         1 <1>         0.149017 
     29 H          -3.543991   -7.736985    2.568632 H         1 <1>         0.217422 
     30 H           0.036793  -10.635701    1.896354 H         1 <1>         0.052871 
     31 H          -0.866057   -9.645190    3.078108 H         1 <1>         0.052871 
     32 H          -1.535645   -9.944835    1.422655 H         1 <1>         0.052871 
     33 H          -0.099502   -0.490788   -1.399446 H         1 <1>         0.035827 
     34 H          -0.845541   -0.088220    0.175962 H         1 <1>         0.035827 
     35 H           1.173228    1.346660    0.724946 H         1 <1>         0.026980 
     36 H           1.845576    0.981244   -0.891800 H         1 <1>         0.026980 
     37 H          -0.221562    2.055092   -1.938456 H         1 <1>         0.026540 
     38 H          -0.799940    2.459462   -0.299032 H         1 <1>         0.026540 
     39 H           1.334020    3.820134    0.069031 H         1 <1>         0.026529 
     40 H           1.816575    3.449443   -1.608137 H         1 <1>         0.026529 
     41 H          -0.303710    4.601005   -2.423644 H         1 <1>         0.026537 
     42 H          -0.701521    4.990467   -0.726396 H         1 <1>         0.026537 
     43 H           1.452095    6.328889   -0.554441 H         1 <1>         0.026777 
     44 H           1.835106    5.874890   -2.232007 H         1 <1>         0.026777 
     45 H          -0.240070    7.100102   -3.020481 H         1 <1>         0.029548 
     46 H          -1.277499    8.804428   -1.448300 H         1 <1>         0.023233 
     47 H          -1.644806    7.144043   -0.948296 H         1 <1>         0.023233 
     48 H          -0.381012    8.073068   -0.089711 H         1 <1>         0.023233 
     49 H           0.748770    9.389375   -2.752833 H         1 <1>         0.023233 
     50 H           2.013997    8.185390   -3.098620 H         1 <1>         0.023233 
     51 H           1.789857    8.787827   -1.429743 H         1 <1>         0.023233 
@<TRIPOS>BOND
     1    1    2 2    
     2    1    3 1    
     3    1    4 1    
     4    2    5 1    
     5    2   23 1    
     6    3    6 2    
     7    3   24 1    
     8    4    7 1    
     9    4   25 1    
    10    4   26 1    
    11    5    8 2    
    12    5    9 1    
    13    6    8 1    
    14    6   27 1    
    15    7   10 1    
    16    7   28 1    
    17    8   11 1    
    18    9   12 1    
    19   10   13 1    
    20   10   14 2    
    21   11   29 1    
    22   12   30 1    
    23   12   31 1    
    24   12   32 1    
    25   13   15 1    
    26   13   33 1    
    27   13   34 1    
    28   15   16 1    
    29   15   35 1    
    30   15   36 1    
    31   16   17 1    
    32   16   37 1    
    33   16   38 1    
    34   17   18 1    
    35   17   39 1    
    36   17   40 1    
    37   18   19 1    
    38   18   41 1    
    39   18   42 1    
    40   19   20 1    
    41   19   43 1    
    42   19   44 1    
    43   20   21 1    
    44   20   22 1    
    45   20   45 1    
    46   21   46 1    
    47   21   47 1    
    48   21   48 1    
    49   22   49 1    
    50   22   50 1    
    51   22   51 1    
@<TRIPOS>SUBSTRUCTURE
     1 ****        1 TEMP              0 ****  ****    0 ROOT 
@<TRIPOS>NORMAL
@<TRIPOS>FF_PBC
FORCE_FIELD_SETUP_FEATURE Force Field Setup information
v1.0  0 0.000000 0.000000 0.000000 0.000000 0.000000 0.000000 NONE 0 0 0 0 1 0 0 0 0 0 0 0 0
