@<TRIPOS>MOLECULE
MOL008034
   81    85     1     1     0
SMALL
GASTEIGER


@<TRIPOS>ATOM
      1 O          -5.704895    1.039316    1.659111 O.3       1 <1>        -0.390452 
      2 O          -2.162820    3.070541   -0.553879 O.3       1 <1>        -0.330981 
      3 O           5.129863   -2.651901    0.925492 O.3       1 <1>        -0.330843 
      4 O          -3.748926    2.105141   -1.784249 O.2       1 <1>        -0.264753 
      5 O           3.928152   -1.174465    2.070730 O.2       1 <1>        -0.264547 
      6 C          -0.416430   -1.199819    0.024685 C.3       1 <1>        -0.023048 
      7 C           1.009412   -0.891706   -0.664067 C.3       1 <1>        -0.023246 
      8 C          -1.184633    0.160815    0.307434 C.3       1 <1>        -0.028637 
      9 C          -2.706720    0.095584    0.739410 C.3       1 <1>        -0.011119 
     10 C           1.798563    0.175235    0.196773 C.3       1 <1>        -0.030772 
     11 C          -3.440520   -0.797562   -0.299797 C.3       1 <1>        -0.027021 
     12 C           3.257241    0.433294   -0.296174 C.3       1 <1>        -0.016530 
     13 C          -1.344672   -2.087364   -0.889630 C.3       1 <1>        -0.046559 
     14 C          -0.331061    1.160444    1.138370 C.3       1 <1>        -0.048894 
     15 C          -4.978770   -0.586414   -0.129552 C.3       1 <1>        -0.004804 
     16 C          -3.558539    1.396907    0.509514 C.3       1 <1>         0.076791 
     17 C           4.089307   -0.876393   -0.336408 C.3       1 <1>         0.059584 
     18 C           0.991873    1.483752    0.394537 C.3       1 <1>        -0.049113 
     19 C          -2.830394   -2.219717   -0.419885 C.3       1 <1>        -0.048597 
     20 C           1.944977   -2.158069   -0.745572 C.3       1 <1>        -0.045876 
     21 C          -5.039177    0.894621    0.388265 C.3       1 <1>         0.072923 
     22 C           3.386917   -1.888270   -1.282230 C.3       1 <1>        -0.037524 
     23 C          -0.216905   -2.037714    1.340125 C.3       1 <1>        -0.058784 
     24 C           4.186534    1.402024    0.490785 C.3       1 <1>        -0.016314 
     25 C           0.835599   -0.417228   -2.162686 C.3       1 <1>        -0.058792 
     26 C          -2.912610   -0.336910    2.236657 C.3       1 <1>        -0.058214 
     27 C           5.452880   -0.316582   -0.810225 C.3       1 <1>        -0.037496 
     28 C           5.627335    0.919835    0.117849 C.3       1 <1>        -0.045260 
     29 C          -5.718128   -0.723138   -1.500890 C.3       1 <1>        -0.057168 
     30 C          -5.648323   -1.614005    0.837199 C.3       1 <1>        -0.057168 
     31 C          -3.172892    2.211496   -0.712239 C.2       1 <1>         0.265750 
     32 C           4.360351   -1.561895    0.996694 C.2       1 <1>         0.266102 
     33 C           4.010908    2.895588    0.244376 C.2       1 <1>        -0.076310 
     34 C           3.913249    3.373568   -1.190104 C.3       1 <1>        -0.043768 
     35 C           3.949484    3.770306    1.259653 C.2       1 <1>        -0.099438 
     36 H          -1.255113    0.650236   -0.663302 H         1 <1>         0.031177 
     37 H           1.946379   -0.211685    1.207739 H         1 <1>         0.030934 
     38 H          -3.237161   -0.362636   -1.292468 H         1 <1>         0.031232 
     39 H           3.212952    0.853302   -1.304282 H         1 <1>         0.031953 
     40 H          -0.925794   -3.098492   -1.010902 H         1 <1>         0.027087 
     41 H          -1.421138   -1.659565   -1.897074 H         1 <1>         0.027087 
     42 H          -0.074598    0.754874    2.126761 H         1 <1>         0.026837 
     43 H          -0.881126    2.097677    1.311270 H         1 <1>         0.026837 
     44 H          -3.464480    2.097703    1.354718 H         1 <1>         0.043313 
     45 H           0.798688    1.969508   -0.573923 H         1 <1>         0.026829 
     46 H           1.559141    2.194179    1.016290 H         1 <1>         0.026829 
     47 H          -3.393150   -2.785245   -1.181912 H         1 <1>         0.026846 
     48 H          -2.913485   -2.791209    0.512738 H         1 <1>         0.026846 
     49 H           1.482248   -2.942790   -1.363833 H         1 <1>         0.027106 
     50 H           2.113949   -2.588274    0.249591 H         1 <1>         0.027106 
     51 H          -5.600239    1.549193   -0.302678 H         1 <1>         0.060650 
     52 H           3.959563   -2.830323   -1.303262 H         1 <1>         0.027568 
     53 H           3.379964   -1.519063   -2.316529 H         1 <1>         0.027568 
     54 H           0.464331   -1.591283    2.071175 H         1 <1>         0.023533 
     55 H          -1.140265   -2.211009    1.880569 H         1 <1>         0.023533 
     56 H           0.140742   -3.053862    1.126294 H         1 <1>         0.023533 
     57 H           4.013691    1.205520    1.561128 H         1 <1>         0.034848 
     58 H           1.731498   -0.002339   -2.626517 H         1 <1>         0.023533 
     59 H           0.575457   -1.265169   -2.812200 H         1 <1>         0.023533 
     60 H           0.079560    0.355477   -2.326413 H         1 <1>         0.023533 
     61 H          -2.047875   -0.080151    2.857590 H         1 <1>         0.023546 
     62 H          -3.760194    0.161910    2.721837 H         1 <1>         0.023546 
     63 H          -3.103575   -1.405808    2.363601 H         1 <1>         0.023546 
     64 H           5.386117    0.006534   -1.862641 H         1 <1>         0.027568 
     65 H           6.283925   -1.036413   -0.731478 H         1 <1>         0.027568 
     66 H           6.167332    0.617225    1.031651 H         1 <1>         0.027135 
     67 H           6.233479    1.694842   -0.377966 H         1 <1>         0.027135 
     68 H          -6.792829   -0.516382   -1.381173 H         1 <1>         0.023588 
     69 H          -5.333389   -0.018795   -2.254242 H         1 <1>         0.023588 
     70 H          -5.605540   -1.742982   -1.898576 H         1 <1>         0.023588 
     71 H          -6.741577   -1.488855    0.835237 H         1 <1>         0.023588 
     72 H          -5.438208   -2.641439    0.505913 H         1 <1>         0.023588 
     73 H          -5.324808   -1.518296    1.878316 H         1 <1>         0.023588 
     74 H          -6.630111    0.814733    1.639332 H         1 <1>         0.209828 
     75 H           4.622713    2.840216   -1.839436 H         1 <1>         0.027436 
     76 H           2.892916    3.211920   -1.567140 H         1 <1>         0.027436 
     77 H           4.134272    4.448389   -1.274985 H         1 <1>         0.027436 
     78 H          -1.966916    3.546924   -1.353287 H         1 <1>         0.220218 
     79 H           5.273861   -3.046760    1.778678 H         1 <1>         0.220226 
     80 H           3.820837    4.838052    1.085450 H         1 <1>         0.053440 
     81 H           4.024220    3.454995    2.299873 H         1 <1>         0.053440 
@<TRIPOS>BOND
     1   21    1 1    
     2    1   74 1    
     3   31    2 1    
     4    2   78 1    
     5   32    3 1    
     6    3   79 1    
     7   31    4 2    
     8   32    5 2    
     9    7    6 1    
    10    6    8 1    
    11    6   13 1    
    12    6   23 1    
    13   10    7 1    
    14    7   20 1    
    15    7   25 1    
    16    8    9 1    
    17   14    8 1    
    18    8   36 1    
    19    9   11 1    
    20    9   16 1    
    21    9   26 1    
    22   12   10 1    
    23   10   18 1    
    24   10   37 1    
    25   11   15 1    
    26   19   11 1    
    27   11   38 1    
    28   17   12 1    
    29   12   24 1    
    30   12   39 1    
    31   13   19 1    
    32   13   40 1    
    33   13   41 1    
    34   18   14 1    
    35   14   42 1    
    36   14   43 1    
    37   21   15 1    
    38   15   29 1    
    39   15   30 1    
    40   16   21 1    
    41   16   31 1    
    42   16   44 1    
    43   17   22 1    
    44   17   27 1    
    45   17   32 1    
    46   18   45 1    
    47   18   46 1    
    48   19   47 1    
    49   19   48 1    
    50   20   22 1    
    51   20   49 1    
    52   20   50 1    
    53   21   51 1    
    54   22   52 1    
    55   22   53 1    
    56   23   54 1    
    57   23   55 1    
    58   23   56 1    
    59   24   28 1    
    60   24   33 1    
    61   24   57 1    
    62   25   58 1    
    63   25   59 1    
    64   25   60 1    
    65   26   61 1    
    66   26   62 1    
    67   26   63 1    
    68   27   28 1    
    69   27   64 1    
    70   27   65 1    
    71   28   66 1    
    72   28   67 1    
    73   29   68 1    
    74   29   69 1    
    75   29   70 1    
    76   30   71 1    
    77   30   72 1    
    78   30   73 1    
    79   33   34 1    
    80   33   35 2    
    81   34   75 1    
    82   34   76 1    
    83   34   77 1    
    84   35   80 1    
    85   35   81 1    
@<TRIPOS>SUBSTRUCTURE
     1 ****        6 TEMP              0 ****  ****    0 ROOT 
@<TRIPOS>NORMAL
@<TRIPOS>FF_PBC
FORCE_FIELD_SETUP_FEATURE Force Field Setup information
v1.0  0 0.000000 0.000000 0.000000 0.000000 0.000000 0.000000 NONE 0 0 0 0 1 0 0 0 0 0 0 0 0
