@<TRIPOS>MOLECULE
MOL003613
   12    12     1     1     0
SMALL
GASTEIGER


@<TRIPOS>ATOM
      1 C           0.334871    0.228238    0.177795 C.ar      1 <1>         0.329238 
      2 C          -1.027829    0.154495    0.042455 C.ar      1 <1>         0.045671 
      3 O           1.000308   -0.800189   -0.488142 O.2       1 <1>        -0.218084 
      4 C           1.074412    1.308825    0.966853 C.3       1 <1>         0.051815 
      5 C          -1.271278   -1.031513   -0.788296 C.ar      1 <1>         0.043068 
      6 C          -0.031939   -1.540940   -1.061669 C.ar      1 <1>         0.321477 
      7 H          -1.771005    0.826537    0.458474 H         1 <1>         0.071009 
      8 H           0.371318    2.026278    1.416288 H         1 <1>         0.036372 
      9 H           1.662486    0.831531    1.764646 H         1 <1>         0.036372 
     10 H           1.754480    1.845924    0.289250 H         1 <1>         0.036372 
     11 H          -2.231246   -1.418808   -1.114259 H         1 <1>         0.070721 
     12 H           0.135320   -2.430578   -1.663096 H         1 <1>         0.175969 
@<TRIPOS>BOND
     1    1    2 2    
     2    1    3 1    
     3    1    4 1    
     4    2    5 1    
     5    2    7 1    
     6    3    6 1    
     7    4    8 1    
     8    4    9 1    
     9    4   10 1    
    10    5    6 2    
    11    5   11 1    
    12    6   12 1    
@<TRIPOS>SUBSTRUCTURE
     1 ****        1 TEMP              0 ****  ****    0 ROOT 
@<TRIPOS>NORMAL
@<TRIPOS>FF_PBC
FORCE_FIELD_SETUP_FEATURE Force Field Setup information
v1.0  0 0.000000 0.000000 0.000000 0.000000 0.000000 0.000000 NONE 0 0 0 0 1 0 0 0 0 0 0 0 0
