@<TRIPOS>MOLECULE
MOL013268
   29    30     1     1     0
SMALL
GASTEIGER


@<TRIPOS>ATOM
      1 O           1.535731   -1.629468    0.403317 O.3       1 <1>        -0.388554 
      2 C          -1.206358   -0.388664   -0.039943 C.3       1 <1>        -0.026621 
      3 C           0.061285   -0.164445   -0.914209 C.3       1 <1>        -0.006726 
      4 C          -1.064934    1.114020    0.320977 C.3       1 <1>        -0.035092 
      5 C          -0.318434    1.338531   -1.017580 C.3       1 <1>        -0.043771 
      6 C           1.379858   -0.285955   -0.091332 C.3       1 <1>         0.066637 
      7 C          -0.037798    1.325227    1.468064 C.3       1 <1>        -0.047107 
      8 C           1.365269    0.713277    1.120920 C.3       1 <1>        -0.023716 
      9 C          -1.170670   -1.424703    1.126520 C.3       1 <1>        -0.059216 
     10 C          -2.473293   -0.679899   -0.906276 C.3       1 <1>        -0.059216 
     11 C           2.605672   -0.022259   -1.016788 C.3       1 <1>        -0.035800 
     12 H           0.069455   -0.724476   -1.863174 H         1 <1>         0.033372 
     13 H          -2.011701    1.664594    0.449363 H         1 <1>         0.030615 
     14 H          -0.985232    1.568988   -1.861408 H         1 <1>         0.027182 
     15 H           0.491205    2.082991   -0.995556 H         1 <1>         0.027182 
     16 H          -0.448431    0.911800    2.402159 H         1 <1>         0.026899 
     17 H           0.058651    2.411736    1.634923 H         1 <1>         0.026899 
     18 H           2.034872    1.555901    0.883830 H         1 <1>         0.029291 
     19 H           1.799263    0.225529    2.008688 H         1 <1>         0.029291 
     20 H          -0.340145   -1.315901    1.833919 H         1 <1>         0.023517 
     21 H          -2.101460   -1.342302    1.708446 H         1 <1>         0.023517 
     22 H          -1.112810   -2.440931    0.708936 H         1 <1>         0.023517 
     23 H          -3.376216   -0.592102   -0.282976 H         1 <1>         0.023517 
     24 H          -2.603170   -0.011560   -1.767195 H         1 <1>         0.023517 
     25 H          -2.420390   -1.708006   -1.295776 H         1 <1>         0.023517 
     26 H           3.534605   -0.145245   -0.440107 H         1 <1>         0.025730 
     27 H           2.623556   -0.737397   -1.853447 H         1 <1>         0.025730 
     28 H           2.591079    0.991434   -1.442552 H         1 <1>         0.025730 
     29 H           1.521240   -2.289415   -0.281143 H         1 <1>         0.210159 
@<TRIPOS>BOND
     1    6    1 1    
     2    1   29 1    
     3    3    2 1    
     4    2    4 1    
     5    2    9 1    
     6    2   10 1    
     7    3    5 1    
     8    3    6 1    
     9    3   12 1    
    10    4    5 1    
    11    4    7 1    
    12    4   13 1    
    13    5   14 1    
    14    5   15 1    
    15    6    8 1    
    16    6   11 1    
    17    7    8 1    
    18    7   16 1    
    19    7   17 1    
    20    8   18 1    
    21    8   19 1    
    22    9   20 1    
    23    9   21 1    
    24    9   22 1    
    25   10   23 1    
    26   10   24 1    
    27   10   25 1    
    28   11   26 1    
    29   11   27 1    
    30   11   28 1    
@<TRIPOS>SUBSTRUCTURE
     1 ****        2 TEMP              0 ****  ****    0 ROOT 
@<TRIPOS>NORMAL
@<TRIPOS>FF_PBC
FORCE_FIELD_SETUP_FEATURE Force Field Setup information
v1.0  0 0.000000 0.000000 0.000000 0.000000 0.000000 0.000000 NONE 0 0 0 0 1 0 0 0 0 0 0 0 0
