@<TRIPOS>MOLECULE
MOL004655
   22    23     1     1     0
SMALL
GASTEIGER


@<TRIPOS>ATOM
      1 C          -0.430563   -0.618518    0.067867 C.ar      1 <1>        -0.017883 
      2 C           0.400922    0.605418   -0.034840 C.ar      1 <1>        -0.017883 
      3 C           0.185602   -1.952503   -0.132388 C.ar      1 <1>        -0.054030 
      4 C          -0.018770    1.713510   -0.926615 C.ar      1 <1>        -0.054030 
      5 C          -1.809559   -0.520215    0.356485 C.ar      1 <1>        -0.054030 
      6 C           1.592687    0.722137    0.714006 C.ar      1 <1>        -0.054030 
      7 C          -0.601616   -3.117131   -0.033005 C.ar      1 <1>        -0.061184 
      8 C           0.767154    2.879101   -1.024202 C.ar      1 <1>        -0.061184 
      9 C          -2.637269   -1.745649    0.458348 C.ar      1 <1>        -0.061184 
     10 C           2.420048    1.947552    0.608757 C.ar      1 <1>        -0.061184 
     11 C          -2.048763   -3.010996    0.269568 C.ar      1 <1>        -0.061723 
     12 C           2.017441    2.998985   -0.237169 C.ar      1 <1>        -0.061723 
     13 H           1.244121   -2.031232   -0.357548 H         1 <1>         0.062362 
     14 H          -0.931874    1.625295   -1.506121 H         1 <1>         0.062362 
     15 H          -2.267852    0.451633    0.506971 H         1 <1>         0.062362 
     16 H           1.905917   -0.082842    1.370572 H         1 <1>         0.062362 
     17 H          -0.150715   -4.093594   -0.178481 H         1 <1>         0.061776 
     18 H           0.459532    3.690618   -1.675936 H         1 <1>         0.061776 
     19 H          -3.696800   -1.664817    0.679154 H         1 <1>         0.061776 
     20 H           3.335580    2.032149    1.185419 H         1 <1>         0.061776 
     21 H          -2.652482   -3.909830    0.344583 H         1 <1>         0.061759 
     22 H           2.620864    3.897757   -0.315070 H         1 <1>         0.061759 
@<TRIPOS>BOND
     1    1    2 1    
     2    1    3 1    
     3    1    5 2    
     4    2    4 1    
     5    2    6 2    
     6    3    7 2    
     7    3   13 1    
     8    4    8 2    
     9    4   14 1    
    10    5    9 1    
    11    5   15 1    
    12    6   10 1    
    13    6   16 1    
    14    7   11 1    
    15    7   17 1    
    16    8   12 1    
    17    8   18 1    
    18    9   11 2    
    19    9   19 1    
    20   10   12 2    
    21   10   20 1    
    22   11   21 1    
    23   12   22 1    
@<TRIPOS>SUBSTRUCTURE
     1 ****        1 TEMP              0 ****  ****    0 ROOT 
@<TRIPOS>NORMAL
@<TRIPOS>FF_PBC
FORCE_FIELD_SETUP_FEATURE Force Field Setup information
v1.0  0 0.000000 0.000000 0.000000 0.000000 0.000000 0.000000 NONE 0 0 0 0 1 0 0 0 0 0 0 0 0
