@<TRIPOS>MOLECULE
MOL003776
   79    83     1     1     0
SMALL
GASTEIGER


@<TRIPOS>ATOM
      1 O           6.838620    0.667771   -1.039811 O.2       1 <1>        -0.296829 
      2 O          -3.657806   -3.377671   -0.526478 O.3       1 <1>        -0.330836 
      3 O          -2.671477   -2.013277   -1.989865 O.2       1 <1>        -0.264536 
      4 C           0.707278   -0.777166    0.028524 C.3       1 <1>        -0.019372 
      5 C           1.509380    0.491964   -0.438512 C.3       1 <1>        -0.025716 
      6 C          -0.698178   -0.308195    0.638464 C.3       1 <1>        -0.005095 
      7 C           3.076176    0.421451   -0.715535 C.3       1 <1>        -0.024349 
      8 C           3.742018   -0.368378    0.468938 C.3       1 <1>        -0.023487 
      9 C           1.550436   -1.556283    1.093696 C.3       1 <1>        -0.046258 
     10 C          -1.470262    0.399767   -0.472873 C.2       1 <1>        -0.062908 
     11 C          -2.993296    0.317484   -0.525687 C.3       1 <1>        -0.004222 
     12 C           3.043200   -1.739368    0.711704 C.3       1 <1>        -0.048300 
     13 C          -1.462818   -1.516202    1.285868 C.3       1 <1>        -0.042415 
     14 C          -3.597046   -1.017888    0.002788 C.3       1 <1>         0.062460 
     15 C           0.679361    1.263018   -1.509177 C.3       1 <1>        -0.030614 
     16 C           5.315632   -0.471011    0.424217 C.3       1 <1>         0.026692 
     17 C           3.641066    1.896632   -0.711649 C.3       1 <1>        -0.040363 
     18 C          -3.001339   -1.331731    1.401873 C.3       1 <1>        -0.036973 
     19 C           0.472063   -1.731117   -1.197972 C.3       1 <1>        -0.058491 
     20 C          -0.821111    1.125122   -1.397789 C.2       1 <1>        -0.083635 
     21 C          -0.600764    0.804615    1.753061 C.3       1 <1>        -0.055323 
     22 C           3.504493   -0.193838   -2.097789 C.3       1 <1>        -0.058990 
     23 C          -3.601377    1.585863    0.143835 C.3       1 <1>        -0.040331 
     24 C          -5.155970   -0.944728    0.029163 C.3       1 <1>        -0.037288 
     25 C          -5.158089    1.644403    0.115915 C.3       1 <1>        -0.034278 
     26 C           5.099426    2.023657   -0.177927 C.3       1 <1>         0.006881 
     27 C           5.852932    0.732662   -0.322180 C.2       1 <1>         0.139227 
     28 C          -5.713062    0.324456    0.728126 C.3       1 <1>        -0.046865 
     29 C           5.917721   -0.427876    1.865531 C.3       1 <1>        -0.052812 
     30 C           5.863449   -1.772475   -0.248281 C.3       1 <1>        -0.052812 
     31 C          -3.261286   -2.168088   -0.932089 C.2       1 <1>         0.266382 
     32 C          -5.702143    1.887811   -1.327247 C.3       1 <1>        -0.059792 
     33 C          -5.634071    2.842694    0.995991 C.3       1 <1>        -0.059792 
     34 H           1.486036    1.114456    0.460132 H         1 <1>         0.031460 
     35 H           3.511863    0.238397    1.360603 H         1 <1>         0.031535 
     36 H           1.118809   -2.554190    1.271413 H         1 <1>         0.027096 
     37 H           1.555935   -1.047139    2.064491 H         1 <1>         0.027096 
     38 H          -3.285619    0.371964   -1.585294 H         1 <1>         0.035619 
     39 H           3.529947   -2.253549    1.556941 H         1 <1>         0.026856 
     40 H           3.126702   -2.405234   -0.157234 H         1 <1>         0.026856 
     41 H          -1.056573   -1.709770    2.292210 H         1 <1>         0.027403 
     42 H          -1.324534   -2.443175    0.721253 H         1 <1>         0.027403 
     43 H           0.878711    0.865735   -2.510916 H         1 <1>         0.031042 
     44 H           0.942594    2.332726   -1.512660 H         1 <1>         0.031042 
     45 H           3.050787    2.595269   -0.096906 H         1 <1>         0.027469 
     46 H           3.591278    2.303210   -1.735486 H         1 <1>         0.027469 
     47 H          -3.441633   -2.265414    1.791121 H         1 <1>         0.027586 
     48 H          -3.258104   -0.552446    2.128548 H         1 <1>         0.027586 
     49 H          -0.238743   -1.325170   -1.926824 H         1 <1>         0.023542 
     50 H           1.388896   -1.915741   -1.751512 H         1 <1>         0.023542 
     51 H           0.111810   -2.729519   -0.921744 H         1 <1>         0.023542 
     52 H          -1.395485    1.660065   -2.156636 H         1 <1>         0.057198 
     53 H          -1.496684    0.854445    2.379027 H         1 <1>         0.023829 
     54 H           0.214890    0.646321    2.466346 H         1 <1>         0.023829 
     55 H          -0.477485    1.816717    1.335050 H         1 <1>         0.023829 
     56 H           2.937854    0.215274   -2.940598 H         1 <1>         0.023525 
     57 H           4.549228    0.045746   -2.333145 H         1 <1>         0.023525 
     58 H           3.434521   -1.281797   -2.156526 H         1 <1>         0.023525 
     59 H          -3.286699    1.633833    1.191560 H         1 <1>         0.027642 
     60 H          -3.199310    2.485467   -0.350068 H         1 <1>         0.027642 
     61 H          -5.557636   -1.833586    0.544049 H         1 <1>         0.027577 
     62 H          -5.540858   -0.978693   -1.001789 H         1 <1>         0.027577 
     63 H           5.097628    2.277013    0.893831 H         1 <1>         0.034189 
     64 H           5.631372    2.837026   -0.698344 H         1 <1>         0.034189 
     65 H          -6.813391    0.322589    0.656200 H         1 <1>         0.027072 
     66 H          -5.460362    0.277347    1.798511 H         1 <1>         0.027072 
     67 H           5.591085   -1.298021    2.453858 H         1 <1>         0.023909 
     68 H           7.018134   -0.441322    1.820600 H         1 <1>         0.023909 
     69 H           5.623953    0.478534    2.415103 H         1 <1>         0.023909 
     70 H           5.522533   -1.892049   -1.282596 H         1 <1>         0.023909 
     71 H           6.964151   -1.755686   -0.273582 H         1 <1>         0.023909 
     72 H           5.573277   -2.672861    0.311741 H         1 <1>         0.023909 
     73 H          -5.312373    2.838424   -1.722450 H         1 <1>         0.023499 
     74 H          -5.431385    1.100863   -2.041368 H         1 <1>         0.023499 
     75 H          -6.800950    1.952432   -1.311596 H         1 <1>         0.023499 
     76 H          -6.733138    2.908048    1.003533 H         1 <1>         0.023499 
     77 H          -5.296079    2.736080    2.038417 H         1 <1>         0.023499 
     78 H          -5.234707    3.791850    0.606433 H         1 <1>         0.023499 
     79 H          -3.419803   -4.057144   -1.147833 H         1 <1>         0.220226 
@<TRIPOS>BOND
     1   27    1 2    
     2   31    2 1    
     3    2   79 1    
     4   31    3 2    
     5    5    4 1    
     6    4    6 1    
     7    9    4 1    
     8    4   19 1    
     9    7    5 1    
    10    5   15 1    
    11    5   34 1    
    12    6   10 1    
    13    6   13 1    
    14    6   21 1    
    15    8    7 1    
    16    7   17 1    
    17    7   22 1    
    18    8   12 1    
    19   16    8 1    
    20    8   35 1    
    21   12    9 1    
    22    9   36 1    
    23    9   37 1    
    24   10   11 1    
    25   20   10 2    
    26   11   14 1    
    27   11   23 1    
    28   11   38 1    
    29   12   39 1    
    30   12   40 1    
    31   13   18 1    
    32   13   41 1    
    33   13   42 1    
    34   18   14 1    
    35   14   24 1    
    36   14   31 1    
    37   15   20 1    
    38   15   43 1    
    39   15   44 1    
    40   16   27 1    
    41   16   29 1    
    42   16   30 1    
    43   17   26 1    
    44   17   45 1    
    45   17   46 1    
    46   18   47 1    
    47   18   48 1    
    48   19   49 1    
    49   19   50 1    
    50   19   51 1    
    51   20   52 1    
    52   21   53 1    
    53   21   54 1    
    54   21   55 1    
    55   22   56 1    
    56   22   57 1    
    57   22   58 1    
    58   23   25 1    
    59   23   59 1    
    60   23   60 1    
    61   24   28 1    
    62   24   61 1    
    63   24   62 1    
    64   25   28 1    
    65   25   32 1    
    66   25   33 1    
    67   26   27 1    
    68   26   63 1    
    69   26   64 1    
    70   28   65 1    
    71   28   66 1    
    72   29   67 1    
    73   29   68 1    
    74   29   69 1    
    75   30   70 1    
    76   30   71 1    
    77   30   72 1    
    78   32   73 1    
    79   32   74 1    
    80   32   75 1    
    81   33   76 1    
    82   33   77 1    
    83   33   78 1    
@<TRIPOS>SUBSTRUCTURE
     1 ****        4 TEMP              0 ****  ****    0 ROOT 
@<TRIPOS>NORMAL
@<TRIPOS>FF_PBC
FORCE_FIELD_SETUP_FEATURE Force Field Setup information
v1.0  0 0.000000 0.000000 0.000000 0.000000 0.000000 0.000000 NONE 0 0 0 0 1 0 0 0 0 0 0 0 0
