@<TRIPOS>MOLECULE
MOL002180
   25    24     1     1     0
SMALL
GASTEIGER


@<TRIPOS>ATOM
      1 C          -0.590886   -0.434064    0.000007 C.2       1 <1>         0.133363 
      2 C           0.712228    0.328934    0.000133 C.3       1 <1>         0.005813 
      3 C          -0.515698   -1.942298   -0.000105 C.3       1 <1>         0.005573 
      4 O          -1.664588    0.146562   -0.000004 O.2       1 <1>        -0.297411 
      5 C           0.499336    1.867059   -0.000041 C.3       1 <1>        -0.046624 
      6 C          -1.919513   -2.605511    0.000069 C.3       1 <1>        -0.049228 
      7 C           1.854005    2.626650    0.000114 C.3       1 <1>        -0.055527 
      8 C          -1.814902   -4.152911   -0.000060 C.3       1 <1>        -0.064892 
      9 C           1.639360    4.162590   -0.000096 C.3       1 <1>        -0.065266 
     10 H           1.287005    0.040199    0.894158 H         1 <1>         0.034152 
     11 H           1.287293    0.040035   -0.893653 H         1 <1>         0.034152 
     12 H           0.040159   -2.266003   -0.894132 H         1 <1>         0.034144 
     13 H           0.040446   -2.266139    0.893695 H         1 <1>         0.034144 
     14 H          -0.080330    2.151785   -0.893883 H         1 <1>         0.026918 
     15 H          -0.080621    2.151956    0.893558 H         1 <1>         0.026918 
     16 H          -2.477655   -2.279764    0.894027 H         1 <1>         0.026663 
     17 H          -2.477945   -2.279639   -0.893662 H         1 <1>         0.026663 
     18 H           2.435525    2.344719    0.893790 H         1 <1>         0.026275 
     19 H           2.435843    2.344521   -0.893294 H         1 <1>         0.026275 
     20 H          -2.821574   -4.600165    0.000081 H         1 <1>         0.022988 
     21 H          -1.276983   -4.502007   -0.895278 H         1 <1>         0.022988 
     22 H          -1.276673   -4.502138    0.894920 H         1 <1>         0.022988 
     23 H           2.611292    4.681079    0.000032 H         1 <1>         0.022978 
     24 H           1.077610    4.472126   -0.895241 H         1 <1>         0.022978 
     25 H           1.077268    4.472323    0.894766 H         1 <1>         0.022978 
@<TRIPOS>BOND
     1    1    2 1    
     2    1    3 1    
     3    1    4 2    
     4    2    5 1    
     5    2   10 1    
     6    2   11 1    
     7    3    6 1    
     8    3   12 1    
     9    3   13 1    
    10    5    7 1    
    11    5   14 1    
    12    5   15 1    
    13    6    8 1    
    14    6   16 1    
    15    6   17 1    
    16    7    9 1    
    17    7   18 1    
    18    7   19 1    
    19    8   20 1    
    20    8   21 1    
    21    8   22 1    
    22    9   23 1    
    23    9   24 1    
    24    9   25 1    
@<TRIPOS>SUBSTRUCTURE
     1 ****        1 TEMP              0 ****  ****    0 ROOT 
@<TRIPOS>NORMAL
@<TRIPOS>FF_PBC
FORCE_FIELD_SETUP_FEATURE Force Field Setup information
v1.0  0 0.000000 0.000000 0.000000 0.000000 0.000000 0.000000 NONE 0 0 0 0 1 0 0 0 0 0 0 0 0
