@<TRIPOS>MOLECULE
MOL000936
   39    39     1     1     0
SMALL
GASTEIGER


@<TRIPOS>ATOM
      1 C          -1.177569   -1.441712    0.549871 C.2       1 <1>        -0.076223 
      2 C          -1.933912   -0.955279   -0.451653 C.2       1 <1>        -0.084718 
      3 C          -3.137770   -0.041891   -0.317958 C.3       1 <1>        -0.030839 
      4 C          -2.661264    1.409050   -0.630674 C.3       1 <1>        -0.028553 
      5 C          -1.415871    1.663820    0.201182 C.2       1 <1>        -0.075941 
      6 C          -0.231385    1.229359   -0.264983 C.2       1 <1>        -0.081016 
      7 C           1.097897    1.162533    0.445477 C.3       1 <1>        -0.013044 
      8 C           1.743372   -0.150269    0.002972 C.2       1 <1>        -0.066789 
      9 C           1.361742   -1.384820    0.817691 C.3       1 <1>        -0.027538 
     10 C           0.128188   -2.163378    0.260607 C.3       1 <1>        -0.028301 
     11 C           2.588851   -0.202928   -1.049311 C.2       1 <1>        -0.076157 
     12 C           2.990021    1.048627   -1.809286 C.3       1 <1>        -0.043786 
     13 C           3.218306   -1.481845   -1.576023 C.3       1 <1>        -0.043786 
     14 C          -1.643434    2.363592    1.523846 C.3       1 <1>        -0.043769 
     15 C          -1.523259   -1.293133    2.018454 C.3       1 <1>        -0.043778 
     16 H          -1.649238   -1.172217   -1.482142 H         1 <1>         0.057163 
     17 H          -3.926348   -0.349336   -1.023926 H         1 <1>         0.031044 
     18 H          -3.580642   -0.044503    0.686328 H         1 <1>         0.031044 
     19 H          -2.437514    1.493611   -1.706808 H         1 <1>         0.031285 
     20 H          -3.458979    2.136134   -0.407884 H         1 <1>         0.031285 
     21 H          -0.200564    0.839930   -1.283832 H         1 <1>         0.057470 
     22 H           1.674225    2.059737    0.183806 H         1 <1>         0.035246 
     23 H           1.000987    1.170800    1.538484 H         1 <1>         0.035246 
     24 H           2.222483   -2.066644    0.878877 H         1 <1>         0.031320 
     25 H           1.178203   -1.111597    1.866609 H         1 <1>         0.031320 
     26 H           0.280843   -2.327895   -0.817053 H         1 <1>         0.031294 
     27 H           0.074921   -3.158240    0.731771 H         1 <1>         0.031294 
     28 H           3.575797    0.828096   -2.714169 H         1 <1>         0.027435 
     29 H           3.619499    1.681018   -1.165377 H         1 <1>         0.027435 
     30 H           2.105156    1.617175   -2.131535 H         1 <1>         0.027435 
     31 H           3.196189   -1.489228   -2.676186 H         1 <1>         0.027435 
     32 H           4.268148   -1.517691   -1.249145 H         1 <1>         0.027435 
     33 H           2.724071   -2.411784   -1.269770 H         1 <1>         0.027435 
     34 H          -0.732565    2.520365    2.114719 H         1 <1>         0.027436 
     35 H          -2.073376    3.355941    1.321697 H         1 <1>         0.027436 
     36 H          -2.362709    1.797607    2.133379 H         1 <1>         0.027436 
     37 H          -2.600809   -1.376302    2.211120 H         1 <1>         0.027436 
     38 H          -1.047733   -2.085634    2.615504 H         1 <1>         0.027436 
     39 H          -1.161094   -0.325910    2.391138 H         1 <1>         0.027436 
@<TRIPOS>BOND
     1    1    2 2    
     2    1   10 1    
     3    1   15 1    
     4    2    3 1    
     5    2   16 1    
     6    3    4 1    
     7    3   17 1    
     8    3   18 1    
     9    4    5 1    
    10    4   19 1    
    11    4   20 1    
    12    5    6 2    
    13    5   14 1    
    14    6    7 1    
    15    6   21 1    
    16    7    8 1    
    17    7   22 1    
    18    7   23 1    
    19    8    9 1    
    20    8   11 2    
    21    9   10 1    
    22    9   24 1    
    23    9   25 1    
    24   10   26 1    
    25   10   27 1    
    26   11   12 1    
    27   11   13 1    
    28   12   28 1    
    29   12   29 1    
    30   12   30 1    
    31   13   31 1    
    32   13   32 1    
    33   13   33 1    
    34   14   34 1    
    35   14   35 1    
    36   14   36 1    
    37   15   37 1    
    38   15   38 1    
    39   15   39 1    
@<TRIPOS>SUBSTRUCTURE
     1 ****        1 TEMP              0 ****  ****    0 ROOT 
@<TRIPOS>NORMAL
@<TRIPOS>FF_PBC
FORCE_FIELD_SETUP_FEATURE Force Field Setup information
v1.0  0 0.000000 0.000000 0.000000 0.000000 0.000000 0.000000 NONE 0 0 0 0 1 0 0 0 0 0 0 0 0
