@<TRIPOS>MOLECULE
MOL000024
   39    39     1     1     0
SMALL
GASTEIGER


@<TRIPOS>ATOM
      1 C          -1.183557   -1.678634    0.707976 C.2       1 <1>        -0.084435 
      2 C          -2.046888   -1.145003   -0.173506 C.2       1 <1>        -0.072803 
      3 C          -2.694198    0.191255    0.139881 C.3       1 <1>        -0.013778 
      4 C          -1.607748    1.133646    0.604504 C.2       1 <1>        -0.083431 
      5 C          -0.540617    1.375716   -0.170761 C.2       1 <1>        -0.081679 
      6 C           0.680864    2.201357    0.193313 C.3       1 <1>        -0.013453 
      7 C           1.910045    1.239491    0.082069 C.3       1 <1>        -0.025904 
      8 C           1.617417   -0.096106    0.738947 C.2       1 <1>        -0.084219 
      9 C           1.544113   -1.290377    0.124270 C.2       1 <1>        -0.076214 
     10 C           1.144850   -2.540396    0.890396 C.3       1 <1>        -0.028562 
     11 C          -0.321822   -2.909323    0.525337 C.3       1 <1>        -0.030830 
     12 C           1.818000   -1.476428   -1.352762 C.3       1 <1>        -0.043778 
     13 C           0.803974    3.357676   -0.841554 C.3       1 <1>        -0.056067 
     14 C           0.613316    2.831238    1.617517 C.3       1 <1>        -0.056067 
     15 C          -2.417438   -1.772375   -1.500002 C.3       1 <1>        -0.043495 
     16 H          -1.052830   -1.171952    1.665483 H         1 <1>         0.057173 
     17 H          -3.461405    0.043776    0.915866 H         1 <1>         0.035221 
     18 H          -3.175667    0.644287   -0.740930 H         1 <1>         0.035221 
     19 H          -1.723046    1.573391    1.593489 H         1 <1>         0.057228 
     20 H          -0.527912    0.916465   -1.159936 H         1 <1>         0.057453 
     21 H           2.798658    1.687784    0.552846 H         1 <1>         0.031557 
     22 H           2.150663    1.102155   -0.980535 H         1 <1>         0.031557 
     23 H           1.432328   -0.056716    1.811510 H         1 <1>         0.057181 
     24 H           1.203304   -2.382540    1.979724 H         1 <1>         0.031285 
     25 H           1.827931   -3.372398    0.654888 H         1 <1>         0.031285 
     26 H          -0.325040   -3.277557   -0.509696 H         1 <1>         0.031044 
     27 H          -0.686866   -3.718154    1.178774 H         1 <1>         0.031044 
     28 H           1.787162   -2.534574   -1.652422 H         1 <1>         0.027436 
     29 H           1.064027   -0.936287   -1.943839 H         1 <1>         0.027436 
     30 H           2.819944   -1.097187   -1.603049 H         1 <1>         0.027436 
     31 H           1.717316    3.943221   -0.654967 H         1 <1>         0.023804 
     32 H          -0.065172    4.029634   -0.767997 H         1 <1>         0.023804 
     33 H           0.846718    2.970193   -1.871293 H         1 <1>         0.023804 
     34 H           0.517193    2.065652    2.400112 H         1 <1>         0.023804 
     35 H           1.526301    3.410314    1.823504 H         1 <1>         0.023804 
     36 H          -0.243178    3.518069    1.696074 H         1 <1>         0.023804 
     37 H          -2.332004   -2.867164   -1.492947 H         1 <1>         0.027445 
     38 H          -3.464129   -1.545258   -1.751780 H         1 <1>         0.027445 
     39 H          -1.768677   -1.363808   -2.288767 H         1 <1>         0.027445 
@<TRIPOS>BOND
     1    1    2 2    
     2    1   11 1    
     3    1   16 1    
     4    2    3 1    
     5    2   15 1    
     6    3    4 1    
     7    3   17 1    
     8    3   18 1    
     9    4    5 2    
    10    4   19 1    
    11    5    6 1    
    12    5   20 1    
    13    6    7 1    
    14    6   13 1    
    15    6   14 1    
    16    7    8 1    
    17    7   21 1    
    18    7   22 1    
    19    8    9 2    
    20    8   23 1    
    21    9   10 1    
    22    9   12 1    
    23   10   11 1    
    24   10   24 1    
    25   10   25 1    
    26   11   26 1    
    27   11   27 1    
    28   12   28 1    
    29   12   29 1    
    30   12   30 1    
    31   13   31 1    
    32   13   32 1    
    33   13   33 1    
    34   14   34 1    
    35   14   35 1    
    36   14   36 1    
    37   15   37 1    
    38   15   38 1    
    39   15   39 1    
@<TRIPOS>SUBSTRUCTURE
     1 ****        1 TEMP              0 ****  ****    0 ROOT 
@<TRIPOS>NORMAL
@<TRIPOS>FF_PBC
FORCE_FIELD_SETUP_FEATURE Force Field Setup information
v1.0  0 0.000000 0.000000 0.000000 0.000000 0.000000 0.000000 NONE 0 0 0 0 1 0 0 0 0 0 0 0 0
