@<TRIPOS>MOLECULE
MOL000676
   42    42     1     1     0
SMALL
GASTEIGER


@<TRIPOS>ATOM
      1 C          -0.883422    0.214224    0.581645 C.ar      1 <1>         0.059304 
      2 C          -0.570812   -0.823895   -0.427229 C.ar      1 <1>         0.059304 
      3 C           0.182284    1.216264    0.965932 C.2       1 <1>         0.294569 
      4 C          -2.161198    0.254764    1.179169 C.ar      1 <1>        -0.048115 
      5 C           0.801954   -0.848718   -1.061526 C.2       1 <1>         0.294569 
      6 C          -1.551987   -1.769756   -0.793148 C.ar      1 <1>        -0.048115 
      7 O           0.176239    2.500238    0.576856 O.3       1 <1>        -0.311417 
      8 O           1.101814    0.825936    1.665225 O.2       1 <1>        -0.259203 
      9 C          -3.191139   -0.738937    0.794024 C.ar      1 <1>        -0.060980 
     10 O           1.744703   -1.757062   -0.767946 O.3       1 <1>        -0.311417 
     11 O           1.063036    0.014392   -1.882325 O.2       1 <1>        -0.259203 
     12 C          -2.893638   -1.726491   -0.164972 C.ar      1 <1>        -0.060980 
     13 C          -0.863759    2.850648   -0.358639 C.3       1 <1>         0.057383 
     14 C           1.412359   -2.656851    0.308828 C.3       1 <1>         0.057383 
     15 C          -0.667638    4.337903   -0.746192 C.3       1 <1>        -0.029112 
     16 C           2.637019   -3.574451    0.551298 C.3       1 <1>        -0.029112 
     17 C          -1.741528    4.814485   -1.762141 C.3       1 <1>        -0.053815 
     18 C           2.381084   -4.583283    1.704238 C.3       1 <1>        -0.053815 
     19 C          -1.538121    6.305766   -2.136369 C.3       1 <1>        -0.065205 
     20 C           3.611206   -5.499933    1.932016 C.3       1 <1>        -0.065205 
     21 H          -2.391429    1.009618    1.924141 H         1 <1>         0.062548 
     22 H          -1.328647   -2.527445   -1.537348 H         1 <1>         0.062548 
     23 H          -4.173918   -0.703991    1.253685 H         1 <1>         0.061779 
     24 H          -3.645770   -2.456712   -0.446854 H         1 <1>         0.061779 
     25 H          -0.794380    2.230714   -1.268901 H         1 <1>         0.056589 
     26 H          -1.863852    2.733324    0.088168 H         1 <1>         0.056589 
     27 H           0.546027   -3.287761    0.053828 H         1 <1>         0.056589 
     28 H           1.196548   -2.095026    1.233754 H         1 <1>         0.056589 
     29 H          -0.721953    4.952292    0.167637 H         1 <1>         0.028740 
     30 H           0.337118    4.460381   -1.183287 H         1 <1>         0.028740 
     31 H           3.508425   -2.944739    0.795646 H         1 <1>         0.028740 
     32 H           2.859144   -4.122173   -0.379384 H         1 <1>         0.028740 
     33 H          -1.682016    4.201755   -2.677243 H         1 <1>         0.026335 
     34 H          -2.746472    4.687103   -1.326037 H         1 <1>         0.026335 
     35 H           1.506269   -5.209380    1.461291 H         1 <1>         0.026335 
     36 H           2.164117   -4.033078    2.635147 H         1 <1>         0.026335 
     37 H          -2.306611    6.624055   -2.858590 H         1 <1>         0.022978 
     38 H          -1.615823    6.940845   -1.240057 H         1 <1>         0.022978 
     39 H          -0.546569    6.456033   -2.591263 H         1 <1>         0.022978 
     40 H           3.411621   -6.205625    2.753996 H         1 <1>         0.022978 
     41 H           4.495528   -4.898294    2.194099 H         1 <1>         0.022978 
     42 H           3.833825   -6.077532    1.021215 H         1 <1>         0.022978 
@<TRIPOS>BOND
     1    1    2 1    
     2    1    3 1    
     3    1    4 2    
     4    2    5 1    
     5    2    6 2    
     6    3    7 1    
     7    3    8 2    
     8    4    9 1    
     9    4   21 1    
    10    5   10 1    
    11    5   11 2    
    12    6   12 1    
    13    6   22 1    
    14    7   13 1    
    15    9   12 2    
    16    9   23 1    
    17   10   14 1    
    18   12   24 1    
    19   13   15 1    
    20   13   25 1    
    21   13   26 1    
    22   14   16 1    
    23   14   27 1    
    24   14   28 1    
    25   15   17 1    
    26   15   29 1    
    27   15   30 1    
    28   16   18 1    
    29   16   31 1    
    30   16   32 1    
    31   17   19 1    
    32   17   33 1    
    33   17   34 1    
    34   18   20 1    
    35   18   35 1    
    36   18   36 1    
    37   19   37 1    
    38   19   38 1    
    39   19   39 1    
    40   20   40 1    
    41   20   41 1    
    42   20   42 1    
@<TRIPOS>SUBSTRUCTURE
     1 ****        1 TEMP              0 ****  ****    0 ROOT 
@<TRIPOS>NORMAL
@<TRIPOS>FF_PBC
FORCE_FIELD_SETUP_FEATURE Force Field Setup information
v1.0  0 0.000000 0.000000 0.000000 0.000000 0.000000 0.000000 NONE 0 0 0 0 1 0 0 0 0 0 0 0 0
