@<TRIPOS>MOLECULE
MOL001396
   47    46     1     1     0
SMALL
GASTEIGER


@<TRIPOS>ATOM
      1 C           8.910942    0.406011   -0.000023 C.2       1 <1>         0.259588 
      2 C           7.662854   -0.438649    0.000137 C.3       1 <1>         0.033006 
      3 C           6.367457    0.417401   -0.000070 C.3       1 <1>        -0.044061 
      4 C           5.094830   -0.473314    0.000112 C.3       1 <1>        -0.052596 
      5 C           3.804277    0.391122   -0.000107 C.3       1 <1>        -0.053045 
      6 C           2.526287   -0.492013    0.000102 C.3       1 <1>        -0.053057 
      7 C           1.239874    0.378984   -0.000116 C.3       1 <1>        -0.053057 
      8 C          -0.042313   -0.497994    0.000107 C.3       1 <1>        -0.053057 
      9 C          -1.325105    0.378364   -0.000112 C.3       1 <1>        -0.053057 
     10 C          -2.610229   -0.494216    0.000113 C.3       1 <1>        -0.053057 
     11 C          -3.890493    0.385770   -0.000110 C.3       1 <1>        -0.053057 
     12 C          -5.177109   -0.484670    0.000113 C.3       1 <1>        -0.053065 
     13 C          -6.457114    0.395491   -0.000111 C.3       1 <1>        -0.053306 
     14 C          -7.742626   -0.476161    0.000114 C.3       1 <1>        -0.055911 
     15 C          -9.021101    0.401925   -0.000110 C.3       1 <1>        -0.065276 
     16 O           8.875682    1.626898   -0.000230 O.2       1 <1>        -0.265177 
     17 O          10.058751   -0.274745    0.000080 O.3       1 <1>        -0.331267 
     18 H           7.684350   -1.081484    0.894056 H         1 <1>         0.036600 
     19 H           7.684381   -1.081873   -0.893501 H         1 <1>         0.036600 
     20 H           6.362775    1.063048   -0.894020 H         1 <1>         0.027004 
     21 H           6.362751    1.063452    0.893590 H         1 <1>         0.027004 
     22 H           5.101167   -1.119062    0.893740 H         1 <1>         0.026540 
     23 H           5.101195   -1.119480   -0.893215 H         1 <1>         0.026540 
     24 H           3.799665    1.037133   -0.893516 H         1 <1>         0.026529 
     25 H           3.799654    1.037576    0.892983 H         1 <1>         0.026529 
     26 H           2.529352   -1.137815    0.893612 H         1 <1>         0.026528 
     27 H           2.529361   -1.138264   -0.893085 H         1 <1>         0.026528 
     28 H           1.238201    1.024966   -0.893544 H         1 <1>         0.026528 
     29 H           1.238202    1.025428    0.892977 H         1 <1>         0.026528 
     30 H          -0.042090   -1.143793    0.893629 H         1 <1>         0.026528 
     31 H          -0.042092   -1.144256   -0.893082 H         1 <1>         0.026528 
     32 H          -1.324461    1.024283   -0.893558 H         1 <1>         0.026528 
     33 H          -1.324458    1.024745    0.892999 H         1 <1>         0.026528 
     34 H          -2.611974   -1.140077    0.893607 H         1 <1>         0.026528 
     35 H          -2.611976   -1.140543   -0.893046 H         1 <1>         0.026528 
     36 H          -3.888277    1.031708   -0.893568 H         1 <1>         0.026528 
     37 H          -3.888276    1.032172    0.893013 H         1 <1>         0.026528 
     38 H          -5.179587   -1.130527    0.893603 H         1 <1>         0.026528 
     39 H          -5.179588   -1.130991   -0.893041 H         1 <1>         0.026528 
     40 H          -6.456067    1.041360   -0.893615 H         1 <1>         0.026520 
     41 H          -6.456065    1.041824    0.893060 H         1 <1>         0.026520 
     42 H          -7.750097   -1.122393    0.893774 H         1 <1>         0.026265 
     43 H          -7.750099   -1.122855   -0.893211 H         1 <1>         0.026265 
     44 H          -9.919121   -0.235978    0.000055 H         1 <1>         0.022978 
     45 H          -9.047227    1.042737   -0.895314 H         1 <1>         0.022978 
     46 H          -9.047225    1.043199    0.894761 H         1 <1>         0.022978 
     47 H          10.812564    0.305262   -0.000032 H         1 <1>         0.220208 
@<TRIPOS>BOND
     1    1    2 1    
     2    1   16 2    
     3    1   17 1    
     4    2    3 1    
     5    2   18 1    
     6    2   19 1    
     7    3    4 1    
     8    3   20 1    
     9    3   21 1    
    10    4    5 1    
    11    4   22 1    
    12    4   23 1    
    13    5    6 1    
    14    5   24 1    
    15    5   25 1    
    16    6    7 1    
    17    6   26 1    
    18    6   27 1    
    19    7    8 1    
    20    7   28 1    
    21    7   29 1    
    22    8    9 1    
    23    8   30 1    
    24    8   31 1    
    25    9   10 1    
    26    9   32 1    
    27    9   33 1    
    28   10   11 1    
    29   10   34 1    
    30   10   35 1    
    31   11   12 1    
    32   11   36 1    
    33   11   37 1    
    34   12   13 1    
    35   12   38 1    
    36   12   39 1    
    37   13   14 1    
    38   13   40 1    
    39   13   41 1    
    40   14   15 1    
    41   14   42 1    
    42   14   43 1    
    43   15   44 1    
    44   15   45 1    
    45   15   46 1    
    46   17   47 1    
@<TRIPOS>SUBSTRUCTURE
     1 ****        1 TEMP              0 ****  ****    0 ROOT 
@<TRIPOS>NORMAL
@<TRIPOS>FF_PBC
FORCE_FIELD_SETUP_FEATURE Force Field Setup information
v1.0  0 0.000000 0.000000 0.000000 0.000000 0.000000 0.000000 NONE 0 0 0 0 1 0 0 0 0 0 0 0 0
