@<TRIPOS>MOLECULE
MOL002937
   35    37     1     1     0
SMALL
GASTEIGER


@<TRIPOS>ATOM
      1 C          -2.738272   -1.317464    1.627153 C.ar      1 <1>         0.107515 
      2 C          -2.380419   -2.567240    0.909666 C.ar      1 <1>         0.136004 
      3 C          -1.262598   -2.596050    0.040072 C.ar      1 <1>         0.118114 
      4 C          -0.454739   -1.361201   -0.137127 C.ar      1 <1>         0.079769 
      5 C          -0.802647   -0.176639    0.539294 C.ar      1 <1>         0.092530 
      6 C          -1.972078   -0.163341    1.446215 C.ar      1 <1>         0.001519 
      7 O          -0.051719    0.988506    0.364343 O.3       1 <1>        -0.335583 
      8 C           0.633550    1.121693   -0.894864 C.3       1 <1>         0.097160 
      9 C           1.581901   -0.080843   -1.107586 C.3       1 <1>         0.041565 
     10 C           0.755723   -1.332591   -1.039332 C.2       1 <1>         0.170991 
     11 C           1.449332    2.419724   -0.908286 C.ar      1 <1>        -0.017977 
     12 C           1.579540    3.208805   -2.158599 C.ar      1 <1>        -0.056091 
     13 C           2.327294    4.397568   -2.171288 C.ar      1 <1>        -0.061420 
     14 C           2.992109    4.869907   -0.933832 C.ar      1 <1>        -0.061740 
     15 C           2.874086    4.128576    0.250491 C.ar      1 <1>        -0.061420 
     16 C           2.084889    2.873857    0.265167 C.ar      1 <1>        -0.056091 
     17 O          -0.935542   -3.776614   -0.637136 O.3       1 <1>        -0.356597 
     18 O           1.051178   -2.318655   -1.695599 O.2       1 <1>        -0.291782 
     19 O          -3.838266   -1.283966    2.485308 O.3       1 <1>        -0.357150 
     20 O          -3.164206   -3.707915    1.103484 O.3       1 <1>        -0.342946 
     21 C          -2.548170   -4.726040    1.908696 C.3       1 <1>         0.043242 
     22 H          -2.234417    0.747485    1.972013 H         1 <1>         0.067016 
     23 H          -0.121536    1.159578   -1.698692 H         1 <1>         0.065571 
     24 H           2.087151   -0.002556   -2.083244 H         1 <1>         0.037400 
     25 H           2.340224   -0.109758   -0.310561 H         1 <1>         0.037400 
     26 H           1.097085    2.868742   -3.069104 H         1 <1>         0.062111 
     27 H           2.420758    4.973230   -3.086828 H         1 <1>         0.061767 
     28 H           3.569135    5.789146   -0.947299 H         1 <1>         0.061758 
     29 H           3.360017    4.471157    1.158837 H         1 <1>         0.061767 
     30 H           2.000586    2.307330    1.186919 H         1 <1>         0.062111 
     31 H          -0.193314   -3.685797   -1.227916 H         1 <1>         0.217446 
     32 H          -4.305179   -2.113881    2.483733 H         1 <1>         0.217424 
     33 H          -3.259204   -5.559057    2.008864 H         1 <1>         0.052872 
     34 H          -1.626182   -5.107727    1.444386 H         1 <1>         0.052872 
     35 H          -2.315766   -4.337868    2.912650 H         1 <1>         0.052872 
@<TRIPOS>BOND
     1    1    2 1    
     2    1    6 2    
     3    1   19 1    
     4    2    3 2    
     5    2   20 1    
     6    3    4 1    
     7    3   17 1    
     8    4    5 2    
     9    4   10 1    
    10    5    6 1    
    11    5    7 1    
    12    6   22 1    
    13    7    8 1    
    14    8    9 1    
    15    8   11 1    
    16    8   23 1    
    17    9   10 1    
    18    9   24 1    
    19    9   25 1    
    20   10   18 2    
    21   11   12 1    
    22   11   16 2    
    23   12   13 2    
    24   12   26 1    
    25   13   14 1    
    26   13   27 1    
    27   14   15 2    
    28   14   28 1    
    29   15   16 1    
    30   15   29 1    
    31   16   30 1    
    32   17   31 1    
    33   19   32 1    
    34   20   21 1    
    35   21   33 1    
    36   21   34 1    
    37   21   35 1    
@<TRIPOS>SUBSTRUCTURE
     1 ****        1 TEMP              0 ****  ****    0 ROOT 
@<TRIPOS>NORMAL
@<TRIPOS>FF_PBC
FORCE_FIELD_SETUP_FEATURE Force Field Setup information
v1.0  0 0.000000 0.000000 0.000000 0.000000 0.000000 0.000000 NONE 0 0 0 0 1 0 0 0 0 0 0 0 0
