@<TRIPOS>MOLECULE
MOL001098
   18    18     1     1     0
SMALL
GASTEIGER


@<TRIPOS>ATOM
      1 C          -1.757329    0.442647   -0.000018 C.ar      1 <1>        -0.058821 
      2 C          -1.755514   -1.039406   -0.000044 C.ar      1 <1>        -0.061262 
      3 C          -0.541688   -1.743870   -0.000035 C.ar      1 <1>        -0.058821 
      4 C           0.747160   -1.008366   -0.000004 C.ar      1 <1>        -0.050198 
      5 C           0.740428    0.399947    0.000019 C.ar      1 <1>        -0.055917 
      6 C          -0.538429    1.151387    0.000017 C.ar      1 <1>        -0.050198 
      7 C          -0.502161    2.682876    0.000055 C.3       1 <1>        -0.039700 
      8 C           2.081999   -1.759924    0.000003 C.3       1 <1>        -0.039700 
      9 H          -2.703499    0.973111   -0.000024 H         1 <1>         0.062020 
     10 H          -2.697424   -1.578799   -0.000068 H         1 <1>         0.061775 
     11 H          -0.550181   -2.828771   -0.000052 H         1 <1>         0.062020 
     12 H           1.679049    0.943814    0.000038 H         1 <1>         0.062282 
     13 H          -1.512373    3.118893   -0.000125 H         1 <1>         0.027753 
     14 H           0.033295    3.029875    0.896384 H         1 <1>         0.027753 
     15 H           0.033630    3.029926   -0.896055 H         1 <1>         0.027753 
     16 H           1.931230   -2.849663    0.000250 H         1 <1>         0.027753 
     17 H           2.655797   -1.481971   -0.896828 H         1 <1>         0.027753 
     18 H           2.656013   -1.481604    0.896583 H         1 <1>         0.027753 
@<TRIPOS>BOND
     1    1    2 1    
     2    1    6 2    
     3    1    9 1    
     4    2    3 2    
     5    2   10 1    
     6    3    4 1    
     7    3   11 1    
     8    4    5 2    
     9    4    8 1    
    10    5    6 1    
    11    5   12 1    
    12    6    7 1    
    13    7   13 1    
    14    7   14 1    
    15    7   15 1    
    16    8   16 1    
    17    8   17 1    
    18    8   18 1    
@<TRIPOS>SUBSTRUCTURE
     1 ****        1 TEMP              0 ****  ****    0 ROOT 
@<TRIPOS>NORMAL
@<TRIPOS>FF_PBC
FORCE_FIELD_SETUP_FEATURE Force Field Setup information
v1.0  0 0.000000 0.000000 0.000000 0.000000 0.000000 0.000000 NONE 0 0 0 0 1 0 0 0 0 0 0 0 0
