@<TRIPOS>MOLECULE
MOL000519
   45    47     1     1     0
SMALL
GASTEIGER


@<TRIPOS>ATOM
      1 C          -1.650374   -1.712587   -0.209692 C.2       1 <1>         0.192791 
      2 C          -2.942629   -0.990253   -0.179751 C.2       1 <1>         0.038282 
      3 C          -2.939741    0.352047   -0.230905 C.2       1 <1>         0.127287 
      4 C          -1.676953    1.120550   -0.308409 C.2       1 <1>         0.216844 
      5 C          -0.333872    0.438072   -0.166269 C.ar      1 <1>         0.038506 
      6 C           0.953681    1.180569   -0.075490 C.ar      1 <1>        -0.032108 
      7 C           0.935920    2.712620   -0.034762 C.3       1 <1>        -0.026682 
      8 C           2.287350    3.317233    0.411368 C.3       1 <1>        -0.048249 
      9 C           3.440407    2.637386   -0.357703 C.3       1 <1>        -0.043562 
     10 C           3.590814    1.126646    0.001165 C.3       1 <1>        -0.009565 
     11 C           2.213938    0.426359   -0.025204 C.ar      1 <1>        -0.037831 
     12 C           2.148820   -1.058149    0.012714 C.ar      1 <1>        -0.057089 
     13 C           0.932254   -1.726293   -0.037817 C.ar      1 <1>        -0.049949 
     14 C          -0.336581   -0.969875   -0.135872 C.ar      1 <1>         0.033178 
     15 O          -1.609779   -2.927101   -0.301664 O.2       1 <1>        -0.286870 
     16 O          -1.773025    2.321576   -0.498008 O.2       1 <1>        -0.284499 
     17 C           4.555878    0.497467   -1.051726 C.3       1 <1>        -0.055782 
     18 C           4.201051    0.928020    1.419697 C.3       1 <1>        -0.055782 
     19 C          -4.255992   -1.760576   -0.102930 C.3       1 <1>         0.010698 
     20 C          -4.389314   -2.602270    1.197853 C.3       1 <1>         0.050944 
     21 C          -4.470939   -2.615941   -1.379301 C.3       1 <1>        -0.056096 
     22 O          -3.544149   -3.763715    1.167566 O.3       1 <1>        -0.394418 
     23 O          -4.105194    1.013530   -0.218911 O.3       1 <1>        -0.356036 
     24 H           0.175310    3.062714    0.681279 H         1 <1>         0.031346 
     25 H           0.676661    3.070464   -1.043619 H         1 <1>         0.031346 
     26 H           2.422579    3.193569    1.495708 H         1 <1>         0.026866 
     27 H           2.281180    4.401207    0.204211 H         1 <1>         0.026866 
     28 H           3.235121    2.749677   -1.434411 H         1 <1>         0.027368 
     29 H           4.379930    3.167063   -0.142379 H         1 <1>         0.027368 
     30 H           3.053773   -1.650066    0.091426 H         1 <1>         0.062074 
     31 H           0.915266   -2.810626   -0.007387 H         1 <1>         0.062489 
     32 H           4.070141    0.465113   -2.039239 H         1 <1>         0.023813 
     33 H           5.474662    1.096645   -1.135875 H         1 <1>         0.023813 
     34 H           4.864947   -0.523979   -0.791476 H         1 <1>         0.023813 
     35 H           3.520977    1.278973    2.208214 H         1 <1>         0.023813 
     36 H           4.396676   -0.137723    1.611350 H         1 <1>         0.023813 
     37 H           5.155122    1.467222    1.513257 H         1 <1>         0.023813 
     38 H          -5.108996   -1.061869   -0.073502 H         1 <1>         0.037034 
     39 H          -5.435812   -2.938991    1.307376 H         1 <1>         0.056292 
     40 H          -4.132973   -1.966808    2.064018 H         1 <1>         0.056292 
     41 H          -4.400151   -1.976920   -2.272335 H         1 <1>         0.023627 
     42 H          -5.467689   -3.081428   -1.359573 H         1 <1>         0.023627 
     43 H          -3.722221   -3.416264   -1.465114 H         1 <1>         0.023627 
     44 H          -3.589504   -4.293091    1.959568 H         1 <1>         0.209420 
     45 H          -3.996671    1.959894   -0.267347 H         1 <1>         0.217470 
@<TRIPOS>BOND
     1    1    2 1    
     2    1   14 1    
     3    1   15 2    
     4    2    3 2    
     5    2   19 1    
     6    3    4 1    
     7    3   23 1    
     8    4    5 1    
     9    4   16 2    
    10    5    6 1    
    11    5   14 2    
    12    6    7 1    
    13    6   11 2    
    14    7    8 1    
    15    7   24 1    
    16    7   25 1    
    17    8    9 1    
    18    8   26 1    
    19    8   27 1    
    20    9   10 1    
    21    9   28 1    
    22    9   29 1    
    23   10   11 1    
    24   10   17 1    
    25   10   18 1    
    26   11   12 1    
    27   12   13 2    
    28   12   30 1    
    29   13   14 1    
    30   13   31 1    
    31   17   32 1    
    32   17   33 1    
    33   17   34 1    
    34   18   35 1    
    35   18   36 1    
    36   18   37 1    
    37   19   20 1    
    38   19   21 1    
    39   19   38 1    
    40   20   22 1    
    41   20   39 1    
    42   20   40 1    
    43   21   41 1    
    44   21   42 1    
    45   21   43 1    
    46   22   44 1    
    47   23   45 1    
@<TRIPOS>SUBSTRUCTURE
     1 ****        1 TEMP              0 ****  ****    0 ROOT 
@<TRIPOS>NORMAL
@<TRIPOS>FF_PBC
FORCE_FIELD_SETUP_FEATURE Force Field Setup information
v1.0  0 0.000000 0.000000 0.000000 0.000000 0.000000 0.000000 NONE 0 0 0 0 1 0 0 0 0 0 0 0 0
