@<TRIPOS>MOLECULE
MOL006945
   54    53     1     1     0
SMALL
GASTEIGER


@<TRIPOS>ATOM
      1 C          -6.346482    6.601223    1.665221 C.3       1 <1>        -0.065276 
      2 C          -6.370114    5.079424    1.366923 C.3       1 <1>        -0.055911 
      3 C          -4.932097    4.503116    1.257281 C.3       1 <1>        -0.053306 
      4 C          -4.955070    2.979349    0.956571 C.3       1 <1>        -0.053065 
      5 C          -3.517130    2.401794    0.848763 C.3       1 <1>        -0.053056 
      6 C          -3.540011    0.878761    0.543193 C.3       1 <1>        -0.052977 
      7 C          -2.102111    0.298826    0.439855 C.3       1 <1>        -0.050724 
      8 C          -2.130601   -1.227287    0.144080 C.3       1 <1>        -0.026855 
      9 C          -0.731464   -1.850853   -0.130247 C.3       1 <1>         0.055257 
     10 C           0.212450   -1.749289    1.106117 C.3       1 <1>        -0.026855 
     11 C           1.570948   -2.499564    0.979032 C.3       1 <1>        -0.050724 
     12 C           2.427108   -2.014289   -0.223826 C.3       1 <1>        -0.052977 
     13 C           3.827833   -2.686549   -0.225936 C.3       1 <1>        -0.053056 
     14 C           4.682023   -2.214225   -1.434413 C.3       1 <1>        -0.053065 
     15 C           6.086000   -2.878698   -1.428658 C.3       1 <1>        -0.053306 
     16 C           6.938678   -2.409324   -2.638884 C.3       1 <1>        -0.055911 
     17 C           8.343127   -3.067128   -2.627982 C.3       1 <1>        -0.065276 
     18 O          -0.988825   -3.221340   -0.489529 O.3       1 <1>        -0.391786 
     19 H          -7.374834    6.989359    1.737899 H         1 <1>         0.022978 
     20 H          -5.829836    6.798222    2.617545 H         1 <1>         0.022978 
     21 H          -5.824165    7.142518    0.860971 H         1 <1>         0.022978 
     22 H          -6.910508    4.906099    0.421259 H         1 <1>         0.026265 
     23 H          -6.914480    4.562551    2.174926 H         1 <1>         0.026265 
     24 H          -4.396186    4.680626    2.204297 H         1 <1>         0.026520 
     25 H          -4.391367    5.026089    0.451256 H         1 <1>         0.026520 
     26 H          -5.490767    2.803510    0.009143 H         1 <1>         0.026528 
     27 H          -5.497680    2.457386    1.761979 H         1 <1>         0.026528 
     28 H          -2.983908    2.576461    1.797796 H         1 <1>         0.026528 
     29 H          -2.973105    2.925753    0.045647 H         1 <1>         0.026528 
     30 H          -4.073407    0.709005   -0.406646 H         1 <1>         0.026529 
     31 H          -4.086627    0.353950    1.344153 H         1 <1>         0.026529 
     32 H          -1.586931    0.490842    1.393765 H         1 <1>         0.026608 
     33 H          -1.556025    0.818517   -0.364328 H         1 <1>         0.026608 
     34 H          -2.749352   -1.397635   -0.752729 H         1 <1>         0.029002 
     35 H          -2.606848   -1.758225    0.984116 H         1 <1>         0.029002 
     36 H          -0.291695   -1.315706   -0.990326 H         1 <1>         0.059305 
     37 H          -0.319786   -2.153684    1.982635 H         1 <1>         0.029002 
     38 H           0.442097   -0.690583    1.303135 H         1 <1>         0.029002 
     39 H           2.141140   -2.319945    1.906487 H         1 <1>         0.026608 
     40 H           1.405183   -3.586188    0.907776 H         1 <1>         0.026608 
     41 H           1.921545   -2.260399   -1.170533 H         1 <1>         0.026529 
     42 H           2.548279   -0.919978   -0.168385 H         1 <1>         0.026529 
     43 H           4.355082   -2.436455    0.709467 H         1 <1>         0.026528 
     44 H           3.706234   -3.781449   -0.271312 H         1 <1>         0.026528 
     45 H           4.161671   -2.470893   -2.371899 H         1 <1>         0.026528 
     46 H           4.797750   -1.118615   -1.392613 H         1 <1>         0.026528 
     47 H           6.608791   -2.619010   -0.493357 H         1 <1>         0.026520 
     48 H           5.971576   -3.974597   -1.467414 H         1 <1>         0.026520 
     49 H           6.423946   -2.673860   -3.577722 H         1 <1>         0.026265 
     50 H           7.054709   -1.313061   -2.606224 H         1 <1>         0.026265 
     51 H           8.929226   -2.723853   -3.495226 H         1 <1>         0.022978 
     52 H           8.886726   -2.797123   -1.709138 H         1 <1>         0.022978 
     53 H           8.254468   -4.163644   -2.677092 H         1 <1>         0.022978 
     54 H          -0.224978   -3.690034   -0.806971 H         1 <1>         0.209776 
@<TRIPOS>BOND
     1    1    2 1    
     2    1   19 1    
     3    1   20 1    
     4    1   21 1    
     5    2    3 1    
     6    2   22 1    
     7    2   23 1    
     8    3    4 1    
     9    3   24 1    
    10    3   25 1    
    11    4    5 1    
    12    4   26 1    
    13    4   27 1    
    14    5    6 1    
    15    5   28 1    
    16    5   29 1    
    17    6    7 1    
    18    6   30 1    
    19    6   31 1    
    20    7    8 1    
    21    7   32 1    
    22    7   33 1    
    23    8    9 1    
    24    8   34 1    
    25    8   35 1    
    26    9   10 1    
    27    9   18 1    
    28    9   36 1    
    29   10   11 1    
    30   10   37 1    
    31   10   38 1    
    32   11   12 1    
    33   11   39 1    
    34   11   40 1    
    35   12   13 1    
    36   12   41 1    
    37   12   42 1    
    38   13   14 1    
    39   13   43 1    
    40   13   44 1    
    41   14   15 1    
    42   14   45 1    
    43   14   46 1    
    44   15   16 1    
    45   15   47 1    
    46   15   48 1    
    47   16   17 1    
    48   16   49 1    
    49   16   50 1    
    50   17   51 1    
    51   17   52 1    
    52   17   53 1    
    53   18   54 1    
@<TRIPOS>SUBSTRUCTURE
     1 ****        1 TEMP              0 ****  ****    0 ROOT 
@<TRIPOS>NORMAL
@<TRIPOS>FF_PBC
FORCE_FIELD_SETUP_FEATURE Force Field Setup information
v1.0  0 0.000000 0.000000 0.000000 0.000000 0.000000 0.000000 NONE 0 0 0 0 1 0 0 0 0 0 0 0 0
