@<TRIPOS>MOLECULE
MOL006129
   62    62     1     1     0
SMALL
GASTEIGER


@<TRIPOS>ATOM
      1 C           0.208452    7.002688   -0.946254 C.3       1 <1>         0.043136 
      2 O           0.050916    6.583250    0.419946 O.3       1 <1>        -0.345333 
      3 C          -0.753669    5.454247    0.601595 C.ar      1 <1>         0.105908 
      4 C          -0.133124    4.185282    1.055391 C.ar      1 <1>        -0.025967 
      5 C          -0.921684    3.033407    1.233989 C.ar      1 <1>        -0.044678 
      6 C          -0.320569    1.699323    1.692464 C.3       1 <1>        -0.025239 
      7 C          -0.200883    0.717361    0.490357 C.3       1 <1>        -0.021937 
      8 C          -0.242385   -0.763674    0.971370 C.3       1 <1>         0.070722 
      9 O          -1.572244   -0.906657    1.523886 O.3       1 <1>        -0.311988 
     10 C          -1.809868   -1.894790    2.406297 C.2       1 <1>         0.259297 
     11 O          -2.972296   -2.165629    2.661198 O.2       1 <1>        -0.265274 
     12 C          -0.704309   -2.635535    3.118888 C.3       1 <1>         0.021443 
     13 C          -0.086176   -1.761824   -0.219024 C.3       1 <1>         0.000968 
     14 C           1.385096   -2.019506   -0.677721 C.3       1 <1>         0.070426 
     15 C           2.058722   -3.174217    0.130620 C.3       1 <1>        -0.025923 
     16 C           1.431301   -4.606279    0.057242 C.3       1 <1>        -0.050706 
     17 C           1.262033   -5.206005   -1.372869 C.3       1 <1>        -0.053226 
     18 C          -0.115475   -4.969375   -2.065186 C.3       1 <1>        -0.055910 
     19 C          -1.299402   -5.707209   -1.383472 C.3       1 <1>        -0.065276 
     20 O           1.343505   -2.261017   -2.101406 O.3       1 <1>        -0.311998 
     21 C           2.469972   -2.256161   -2.845727 C.2       1 <1>         0.259297 
     22 O           2.345339   -2.536845   -4.027016 O.2       1 <1>        -0.265274 
     23 C           3.861547   -1.944897   -2.338835 C.3       1 <1>         0.021443 
     24 C          -2.381132    3.096785    0.975545 C.ar      1 <1>        -0.055973 
     25 C          -2.977081    4.291000    0.553926 C.ar      1 <1>        -0.028891 
     26 C          -2.154335    5.505881    0.364035 C.ar      1 <1>         0.105667 
     27 O          -2.774439    6.688771   -0.043904 O.3       1 <1>        -0.345341 
     28 C          -2.906187    7.649014    1.015964 C.3       1 <1>         0.043135 
     29 H           0.869691    7.880850   -0.958182 H         1 <1>         0.052871 
     30 H           0.671942    6.203955   -1.545834 H         1 <1>         0.052871 
     31 H          -0.751667    7.285144   -1.403586 H         1 <1>         0.052871 
     32 H           0.933265    4.160668    1.245034 H         1 <1>         0.064684 
     33 H           0.661907    1.840910    2.170874 H         1 <1>         0.031399 
     34 H          -1.002102    1.303078    2.460097 H         1 <1>         0.031399 
     35 H          -1.048213    0.876383   -0.197399 H         1 <1>         0.029342 
     36 H           0.721336    0.953225   -0.064181 H         1 <1>         0.029342 
     37 H           0.568331   -0.869022    1.709355 H         1 <1>         0.060285 
     38 H          -1.131170   -3.405397    3.779916 H         1 <1>         0.033023 
     39 H          -0.033019   -3.137968    2.415182 H         1 <1>         0.033023 
     40 H          -0.131749   -1.935913    3.746271 H         1 <1>         0.033023 
     41 H          -0.655734   -1.355623   -1.069834 H         1 <1>         0.031548 
     42 H          -0.578411   -2.707390    0.036873 H         1 <1>         0.031548 
     43 H           1.909322   -1.069672   -0.501568 H         1 <1>         0.060275 
     44 H           2.092716   -2.868097    1.188325 H         1 <1>         0.029028 
     45 H           3.102666   -3.271676   -0.191702 H         1 <1>         0.029028 
     46 H           2.136227   -5.260992    0.601317 H         1 <1>         0.026608 
     47 H           0.489049   -4.677736    0.613501 H         1 <1>         0.026608 
     48 H           1.392938   -6.300638   -1.321481 H         1 <1>         0.026521 
     49 H           2.071661   -4.821935   -2.012887 H         1 <1>         0.026521 
     50 H          -0.037598   -5.348858   -3.098422 H         1 <1>         0.026265 
     51 H          -0.367099   -3.904254   -2.130646 H         1 <1>         0.026265 
     52 H          -2.199089   -5.626026   -2.013571 H         1 <1>         0.022978 
     53 H          -1.539581   -5.273177   -0.402734 H         1 <1>         0.022978 
     54 H          -1.068191   -6.774448   -1.251166 H         1 <1>         0.022978 
     55 H           4.401061   -1.414922   -3.138185 H         1 <1>         0.033023 
     56 H           4.398636   -2.885626   -2.149695 H         1 <1>         0.033023 
     57 H           3.919864   -1.309444   -1.447436 H         1 <1>         0.033023 
     58 H          -2.991185    2.209921    1.116675 H         1 <1>         0.062110 
     59 H          -4.044197    4.334485    0.364331 H         1 <1>         0.064419 
     60 H          -1.922047    7.961018    1.399527 H         1 <1>         0.052871 
     61 H          -3.503304    7.231022    1.842196 H         1 <1>         0.052871 
     62 H          -3.424377    8.532869    0.617733 H         1 <1>         0.052871 
@<TRIPOS>BOND
     1    1    2 1    
     2    1   29 1    
     3    1   30 1    
     4    1   31 1    
     5    2    3 1    
     6    3    4 1    
     7    3   26 2    
     8    4    5 2    
     9    4   32 1    
    10    5    6 1    
    11    5   24 1    
    12    6    7 1    
    13    6   33 1    
    14    6   34 1    
    15    7    8 1    
    16    7   35 1    
    17    7   36 1    
    18    8    9 1    
    19    8   13 1    
    20    8   37 1    
    21    9   10 1    
    22   10   11 2    
    23   10   12 1    
    24   12   38 1    
    25   12   39 1    
    26   12   40 1    
    27   13   14 1    
    28   13   41 1    
    29   13   42 1    
    30   14   15 1    
    31   14   20 1    
    32   14   43 1    
    33   15   16 1    
    34   15   44 1    
    35   15   45 1    
    36   16   17 1    
    37   16   46 1    
    38   16   47 1    
    39   17   18 1    
    40   17   48 1    
    41   17   49 1    
    42   18   19 1    
    43   18   50 1    
    44   18   51 1    
    45   19   52 1    
    46   19   53 1    
    47   19   54 1    
    48   20   21 1    
    49   21   22 2    
    50   21   23 1    
    51   23   55 1    
    52   23   56 1    
    53   23   57 1    
    54   24   25 2    
    55   24   58 1    
    56   25   26 1    
    57   25   59 1    
    58   26   27 1    
    59   27   28 1    
    60   28   60 1    
    61   28   61 1    
    62   28   62 1    
@<TRIPOS>SUBSTRUCTURE
     1 ****        1 TEMP              0 ****  ****    0 ROOT 
@<TRIPOS>NORMAL
@<TRIPOS>FF_PBC
FORCE_FIELD_SETUP_FEATURE Force Field Setup information
v1.0  0 0.000000 0.000000 0.000000 0.000000 0.000000 0.000000 NONE 0 0 0 0 1 0 0 0 0 0 0 0 0
