@<TRIPOS>MOLECULE
MOL004044
   38    39     1     1     0
SMALL
GASTEIGER


@<TRIPOS>ATOM
      1 C           0.027234    0.388453   -0.392572 C.3       1 <1>        -0.003121 
      2 C           1.540140   -0.037079   -0.303250 C.3       1 <1>        -0.034274 
      3 C           1.795639   -1.022859    0.880071 C.3       1 <1>        -0.049380 
      4 C           1.059823   -0.645595    2.193260 C.3       1 <1>        -0.049140 
      5 C          -0.399469   -0.191348    1.910032 C.3       1 <1>        -0.031383 
      6 C          -1.141820   -1.279586    1.095137 C.3       1 <1>        -0.027854 
      7 C          -0.820368   -0.879333   -0.330462 C.2       1 <1>        -0.066761 
      8 C          -0.451267    1.039448    0.960641 C.3       1 <1>        -0.022465 
      9 C          -1.926749    1.569110    0.872418 C.3       1 <1>        -0.058752 
     10 C           0.385632    2.244467    1.512905 C.3       1 <1>        -0.058752 
     11 C           2.124168   -0.719086   -1.579006 C.3       1 <1>        -0.061611 
     12 C          -0.264869    1.381443   -1.563190 C.3       1 <1>        -0.055096 
     13 C          -1.306443   -1.638489   -1.327857 C.2       1 <1>        -0.087307 
     14 C          -1.153102   -1.491009   -2.824411 C.3       1 <1>        -0.046549 
     15 H          -0.895972    0.003549    2.876463 H         1 <1>         0.030925 
     16 H           2.150750    0.867226   -0.168883 H         1 <1>         0.030661 
     17 H           2.877637   -1.103517    1.086840 H         1 <1>         0.026821 
     18 H           1.459027   -2.026243    0.575091 H         1 <1>         0.026821 
     19 H           1.614063    0.130053    2.740396 H         1 <1>         0.026829 
     20 H           1.042172   -1.529704    2.853459 H         1 <1>         0.026829 
     21 H          -2.227132   -1.227202    1.271993 H         1 <1>         0.031301 
     22 H          -0.817056   -2.302261    1.344073 H         1 <1>         0.031301 
     23 H          -2.318396    1.757425    1.883053 H         1 <1>         0.023534 
     24 H          -1.983429    2.521754    0.324502 H         1 <1>         0.023534 
     25 H          -2.618348    0.878682    0.370643 H         1 <1>         0.023534 
     26 H           1.463935    2.072533    1.588849 H         1 <1>         0.023534 
     27 H           0.029760    2.487516    2.526163 H         1 <1>         0.023534 
     28 H           0.258394    3.147309    0.898266 H         1 <1>         0.023534 
     29 H           3.169102   -1.017456   -1.397695 H         1 <1>         0.023268 
     30 H           2.138329   -0.058068   -2.455486 H         1 <1>         0.023268 
     31 H           1.562266   -1.630868   -1.825789 H         1 <1>         0.023268 
     32 H           0.219629    1.136504   -2.511134 H         1 <1>         0.023837 
     33 H          -1.344812    1.430687   -1.763307 H         1 <1>         0.023837 
     34 H           0.088539    2.390314   -1.311729 H         1 <1>         0.023837 
     35 H          -1.915872   -2.495668   -1.030278 H         1 <1>         0.056904 
     36 H          -0.272278   -0.932961   -3.146688 H         1 <1>         0.027179 
     37 H          -1.071538   -2.491111   -3.276128 H         1 <1>         0.027179 
     38 H          -2.049542   -0.999502   -3.230981 H         1 <1>         0.027179 
@<TRIPOS>BOND
     1    1    2 1    
     2    1    7 1    
     3    1    8 1    
     4    1   12 1    
     5    2    3 1    
     6    2   11 1    
     7    2   16 1    
     8    3    4 1    
     9    3   17 1    
    10    3   18 1    
    11    4    5 1    
    12    4   19 1    
    13    4   20 1    
    14    5    6 1    
    15    5    8 1    
    16    5   15 1    
    17    6    7 1    
    18    6   21 1    
    19    6   22 1    
    20    7   13 2    
    21    8    9 1    
    22    8   10 1    
    23    9   23 1    
    24    9   24 1    
    25    9   25 1    
    26   10   26 1    
    27   10   27 1    
    28   10   28 1    
    29   11   29 1    
    30   11   30 1    
    31   11   31 1    
    32   12   32 1    
    33   12   33 1    
    34   12   34 1    
    35   13   14 1    
    36   13   35 1    
    37   14   36 1    
    38   14   37 1    
    39   14   38 1    
@<TRIPOS>SUBSTRUCTURE
     1 ****        1 TEMP              0 ****  ****    0 ROOT 
@<TRIPOS>NORMAL
@<TRIPOS>FF_PBC
FORCE_FIELD_SETUP_FEATURE Force Field Setup information
v1.0  0 0.000000 0.000000 0.000000 0.000000 0.000000 0.000000 NONE 0 0 0 0 1 0 0 0 0 0 0 0 0
