@<TRIPOS>MOLECULE
MOL004918
   20    19     1     1     0
SMALL
GASTEIGER


@<TRIPOS>ATOM
      1 C          -2.860718    0.793271    1.283559 C.3       1 <1>        -0.065276 
      2 C          -1.512735    0.026326    1.267096 C.3       1 <1>        -0.055911 
      3 H          -3.438183    0.525761    2.182650 H         1 <1>         0.022978 
      4 H          -3.458793    0.538387    0.394746 H         1 <1>         0.022978 
      5 H          -2.684383    1.880244    1.291409 H         1 <1>         0.022978 
      6 H          -0.941886    0.281833    2.175514 H         1 <1>         0.026265 
      7 H          -1.714995   -1.057756    1.280364 H         1 <1>         0.026265 
      8 C          -0.675199    0.383703    0.008920 C.3       1 <1>        -0.053314 
      9 H          -1.251399    0.129105   -0.895887 H         1 <1>         0.026520 
     10 H          -0.478423    1.468461   -0.000897 H         1 <1>         0.026520 
     11 C           0.675199   -0.383703   -0.008920 C.3       1 <1>        -0.053314 
     12 H           1.251399   -0.129105    0.895887 H         1 <1>         0.026520 
     13 H           0.478423   -1.468461    0.000897 H         1 <1>         0.026520 
     14 C           1.512735   -0.026326   -1.267096 C.3       1 <1>        -0.055911 
     15 H           0.941886   -0.281833   -2.175514 H         1 <1>         0.026265 
     16 H           1.714995    1.057756   -1.280364 H         1 <1>         0.026265 
     17 C           2.860718   -0.793271   -1.283559 C.3       1 <1>        -0.065276 
     18 H           3.438183   -0.525761   -2.182650 H         1 <1>         0.022978 
     19 H           3.458793   -0.538387   -0.394746 H         1 <1>         0.022978 
     20 H           2.684383   -1.880244   -1.291409 H         1 <1>         0.022978 
@<TRIPOS>BOND
     1    1    2 1    
     2    1    3 1    
     3    1    4 1    
     4    1    5 1    
     5    2    6 1    
     6    2    7 1    
     7    2    8 1    
     8    8    9 1    
     9    8   10 1    
    10    8   11 1    
    11   11   12 1    
    12   11   13 1    
    13   11   14 1    
    14   14   15 1    
    15   14   16 1    
    16   14   17 1    
    17   17   18 1    
    18   17   19 1    
    19   17   20 1    
@<TRIPOS>SUBSTRUCTURE
     1 ****        1 TEMP              0 ****  ****    0 ROOT 
@<TRIPOS>NORMAL
@<TRIPOS>FF_PBC
FORCE_FIELD_SETUP_FEATURE Force Field Setup information
v1.0  0 0.000000 0.000000 0.000000 0.000000 0.000000 0.000000 NONE 0 0 0 0 1 0 0 0 0 0 0 0 0
