@<TRIPOS>MOLECULE
MOL002176
   15    15     1     1     0
SMALL
GASTEIGER


@<TRIPOS>ATOM
      1 C           0.486405   -0.470894   -0.293765 C.ar      1 <1>         0.150297 
      2 C           0.946252    0.670154    0.519148 C.ar      1 <1>         0.055833 
      3 C           1.647161   -1.108863   -0.660047 C.ar      1 <1>         0.333905 
      4 C          -0.875504   -0.977209   -0.726530 C.2       1 <1>         0.302281 
      5 C           2.306629    0.587299    0.546855 C.ar      1 <1>         0.321857 
      6 O           2.816217   -0.501127   -0.169564 O.2       1 <1>        -0.220146 
      7 O          -0.847593   -1.982027   -1.415817 O.2       1 <1>        -0.258917 
      8 O          -2.095403   -0.481943   -0.461656 O.3       1 <1>        -0.314541 
      9 C          -2.181594    0.700409    0.346106 C.3       1 <1>         0.046200 
     10 H           0.364363    1.438759    1.011229 H         1 <1>         0.071509 
     11 H           1.671535   -2.005600   -1.274908 H         1 <1>         0.176827 
     12 H           2.941045    1.296333    1.073688 H         1 <1>         0.175977 
     13 H          -3.251994    0.937060    0.442570 H         1 <1>         0.052972 
     14 H          -1.695053    1.559802   -0.139723 H         1 <1>         0.052972 
     15 H          -1.787864    0.528867    1.359447 H         1 <1>         0.052972 
@<TRIPOS>BOND
     1    1    2 1    
     2    1    3 2    
     3    1    4 1    
     4    2    5 2    
     5    2   10 1    
     6    3    6 1    
     7    3   11 1    
     8    4    7 2    
     9    4    8 1    
    10    5    6 1    
    11    5   12 1    
    12    8    9 1    
    13    9   13 1    
    14    9   14 1    
    15    9   15 1    
@<TRIPOS>SUBSTRUCTURE
     1 ****        1 TEMP              0 ****  ****    0 ROOT 
@<TRIPOS>NORMAL
@<TRIPOS>FF_PBC
FORCE_FIELD_SETUP_FEATURE Force Field Setup information
v1.0  0 0.000000 0.000000 0.000000 0.000000 0.000000 0.000000 NONE 0 0 0 0 1 0 0 0 0 0 0 0 0
