@<TRIPOS>MOLECULE
MOL012967
   77    79     1     1     0
SMALL
GASTEIGER


@<TRIPOS>ATOM
      1 O           1.811421    1.307268    3.120281 O.3       1 <1>        -0.337760 
      2 O           0.603854    3.483488    0.282335 O.3       1 <1>        -0.340502 
      3 O           2.118703   -0.471865    1.727319 O.3       1 <1>        -0.343067 
      4 O           0.122784    1.237284    0.501156 O.3       1 <1>        -0.341636 
      5 O           1.917454    3.865203    4.217511 O.3       1 <1>        -0.386391 
      6 O          -3.340034   -1.727982   -0.893132 O.3       1 <1>        -0.379654 
      7 O           2.384874    5.991559    2.367103 O.3       1 <1>        -0.386488 
      8 O           0.702382   -0.435362    5.152368 O.3       1 <1>        -0.384104 
      9 O           1.466477   -3.181196    4.863226 O.3       1 <1>        -0.386402 
     10 O           1.503663   -4.147306    2.167876 O.3       1 <1>        -0.386579 
     11 O           1.476345    7.044952    0.128037 O.3       1 <1>        -0.392366 
     12 O          -3.914999   -5.104722   -4.122006 O.2       1 <1>        -0.292661 
     13 C          -3.021007   -1.700316   -3.369085 C.3       1 <1>         0.008343 
     14 C           1.176849    2.392050    2.406063 C.3       1 <1>         0.140636 
     15 C           1.998548    3.647892    2.794266 C.3       1 <1>         0.114429 
     16 C          -2.383971   -1.934358   -1.951267 C.3       1 <1>         0.110840 
     17 C           1.089576    2.252790    0.857896 C.3       1 <1>         0.188912 
     18 C           1.484839    4.908767    2.061089 C.3       1 <1>         0.111906 
     19 C           1.428618    4.632353    0.538963 C.3       1 <1>         0.113006 
     20 C           1.307394   -0.003039    2.821210 C.3       1 <1>         0.188431 
     21 C           1.534639   -0.891569    4.066709 C.3       1 <1>         0.134123 
     22 C          -4.092060   -2.794131   -3.660953 C.3       1 <1>         0.018235 
     23 C           1.174874   -2.355326    3.719529 C.3       1 <1>         0.113972 
     24 C           1.985884   -2.826217    2.488502 C.3       1 <1>         0.109478 
     25 C           1.811090   -1.817390    1.316453 C.3       1 <1>         0.087307 
     26 C          -1.889212   -3.364286   -1.788841 C.2       1 <1>        -0.033891 
     27 C          -3.709058   -0.303817   -3.430891 C.3       1 <1>        -0.056178 
     28 C          -1.936891   -1.761283   -4.494338 C.3       1 <1>        -0.056178 
     29 C          -1.261457   -0.927353   -1.760890 C.2       1 <1>        -0.049762 
     30 C          -0.329741    1.274800   -0.873698 C.3       1 <1>         0.077195 
     31 C           0.777605    5.827811   -0.200921 C.3       1 <1>         0.073015 
     32 C          -3.495633   -4.159917   -3.472971 C.2       1 <1>         0.156765 
     33 C          -2.406193   -4.368619   -2.507859 C.2       1 <1>        -0.017210 
     34 C          -1.379610    0.193576   -1.033156 C.2       1 <1>        -0.056725 
     35 C           2.762919   -2.151056    0.138538 C.3       1 <1>        -0.036060 
     36 C          -0.812155   -3.610421   -0.757521 C.3       1 <1>        -0.040377 
     37 C           0.817664    1.233544   -1.919430 C.3       1 <1>        -0.034958 
     38 H           2.416437    4.630255    4.490287 H         1 <1>         0.210005 
     39 H          -4.048038   -2.361514   -0.869591 H         1 <1>         0.211064 
     40 H           2.147619    6.793058    1.905540 H         1 <1>         0.210004 
     41 H           0.816287   -0.970544    5.932695 H         1 <1>         0.210110 
     42 H           1.267143   -4.098320    4.694940 H         1 <1>         0.210005 
     43 H           2.003791   -4.592825    1.492460 H         1 <1>         0.210002 
     44 H           1.114814    7.808518   -0.315132 H         1 <1>         0.209508 
     45 H           0.151480    2.528022    2.785827 H         1 <1>         0.067477 
     46 H           3.048394    3.468374    2.504429 H         1 <1>         0.064768 
     47 H           2.082279    1.979295    0.465423 H         1 <1>         0.093770 
     48 H           0.469813    5.133265    2.433603 H         1 <1>         0.064673 
     49 H           2.450916    4.490780    0.149603 H         1 <1>         0.064668 
     50 H           0.224471   -0.004446    2.609512 H         1 <1>         0.093753 
     51 H           2.600707   -0.823444    4.343088 H         1 <1>         0.067095 
     52 H          -4.452979   -2.701711   -4.697510 H         1 <1>         0.035125 
     53 H          -4.969217   -2.703894   -3.003576 H         1 <1>         0.035125 
     54 H           0.096285   -2.405767    3.487725 H         1 <1>         0.064757 
     55 H           3.046510   -2.864543    2.789345 H         1 <1>         0.064584 
     56 H           0.770404   -1.838743    0.960207 H         1 <1>         0.062075 
     57 H          -4.478127   -0.209139   -2.650217 H         1 <1>         0.023618 
     58 H          -2.978678    0.507057   -3.292942 H         1 <1>         0.023618 
     59 H          -4.192779   -0.158725   -4.408669 H         1 <1>         0.023618 
     60 H          -1.347674   -2.689062   -4.431343 H         1 <1>         0.023618 
     61 H          -2.405984   -1.723276   -5.489900 H         1 <1>         0.023618 
     62 H          -1.243181   -0.908650   -4.440339 H         1 <1>         0.023618 
     63 H          -0.324043   -1.139927   -2.268930 H         1 <1>         0.060147 
     64 H          -0.883987    2.211513   -1.057384 H         1 <1>         0.063841 
     65 H          -0.280663    5.901124    0.102968 H         1 <1>         0.058370 
     66 H           0.813912    5.633470   -1.286005 H         1 <1>         0.058370 
     67 H          -2.038641   -5.388263   -2.393340 H         1 <1>         0.065274 
     68 H          -2.312817    0.384840   -0.502510 H         1 <1>         0.059532 
     69 H           2.554134   -3.140691   -0.291438 H         1 <1>         0.025536 
     70 H           2.647691   -1.403880   -0.657922 H         1 <1>         0.025536 
     71 H           3.807983   -2.126601    0.481786 H         1 <1>         0.025536 
     72 H           0.141996   -3.188803   -1.098573 H         1 <1>         0.027546 
     73 H          -1.112628   -3.133063    0.186582 H         1 <1>         0.027546 
     74 H          -0.654222   -4.680428   -0.556053 H         1 <1>         0.027546 
     75 H           0.404115    1.140332   -2.936245 H         1 <1>         0.025765 
     76 H           1.413447    2.158947   -1.888977 H         1 <1>         0.025765 
     77 H           1.485825    0.385960   -1.722302 H         1 <1>         0.025765 
@<TRIPOS>BOND
     1   14    1 1    
     2    1   20 1    
     3   17    2 1    
     4    2   19 1    
     5   20    3 1    
     6    3   25 1    
     7    4   17 1    
     8   30    4 1    
     9   15    5 1    
    10    5   38 1    
    11   16    6 1    
    12    6   39 1    
    13   18    7 1    
    14    7   40 1    
    15   21    8 1    
    16    8   41 1    
    17   23    9 1    
    18    9   42 1    
    19   24   10 1    
    20   10   43 1    
    21   31   11 1    
    22   11   44 1    
    23   32   12 2    
    24   16   13 1    
    25   13   22 1    
    26   13   27 1    
    27   13   28 1    
    28   14   15 1    
    29   17   14 1    
    30   14   45 1    
    31   15   18 1    
    32   15   46 1    
    33   16   26 1    
    34   29   16 1    
    35   17   47 1    
    36   19   18 1    
    37   18   48 1    
    38   19   31 1    
    39   19   49 1    
    40   20   21 1    
    41   20   50 1    
    42   21   23 1    
    43   21   51 1    
    44   22   32 1    
    45   22   52 1    
    46   22   53 1    
    47   23   24 1    
    48   23   54 1    
    49   25   24 1    
    50   24   55 1    
    51   25   35 1    
    52   25   56 1    
    53   26   33 2    
    54   26   36 1    
    55   27   57 1    
    56   27   58 1    
    57   27   59 1    
    58   28   60 1    
    59   28   61 1    
    60   28   62 1    
    61   34   29 2    
    62   29   63 1    
    63   30   34 1    
    64   30   37 1    
    65   30   64 1    
    66   31   65 1    
    67   31   66 1    
    68   32   33 1    
    69   33   67 1    
    70   34   68 1    
    71   35   69 1    
    72   35   70 1    
    73   35   71 1    
    74   36   72 1    
    75   36   73 1    
    76   36   74 1    
    77   37   75 1    
    78   37   76 1    
    79   37   77 1    
@<TRIPOS>SUBSTRUCTURE
     1 ****        1 TEMP              0 ****  ****    0 ROOT 
@<TRIPOS>NORMAL
@<TRIPOS>FF_PBC
FORCE_FIELD_SETUP_FEATURE Force Field Setup information
v1.0  0 0.000000 0.000000 0.000000 0.000000 0.000000 0.000000 NONE 0 0 0 0 1 0 0 0 0 0 0 0 0
