@<TRIPOS>MOLECULE
MOL002915
   40    42     1     1     0
SMALL
GASTEIGER


@<TRIPOS>ATOM
      1 C          -0.895545    0.893196    0.001013 C.ar      1 <1>         0.098980 
      2 C          -0.456355    2.300267    0.025914 C.ar      1 <1>         0.084491 
      3 O           0.043749   -0.140983   -0.007951 O.3       1 <1>        -0.307709 
      4 C          -2.256052    0.587885   -0.013808 C.ar      1 <1>         0.002263 
      5 C          -1.395590    3.344447    0.034405 C.ar      1 <1>         0.118472 
      6 C           1.035841    2.504981    0.040839 C.2       1 <1>         0.193594 
      7 C           1.373854    0.060767    0.004900 C.2       1 <1>         0.093865 
      8 C          -3.283925    1.663235   -0.004484 C.ar      1 <1>         0.110695 
      9 C          -2.848875    3.037180    0.019138 C.ar      1 <1>         0.136266 
     10 O          -0.962292    4.670995    0.057509 O.3       1 <1>        -0.356589 
     11 C           1.881800    1.304080    0.027941 C.2       1 <1>         0.016920 
     12 O           1.540943    3.615468    0.062875 O.2       1 <1>        -0.287016 
     13 C           2.229802   -1.194981   -0.008604 C.ar      1 <1>         0.005751 
     14 O          -4.651141    1.351589   -0.018078 O.3       1 <1>        -0.345170 
     15 O          -3.738117    4.125886    0.029362 O.3       1 <1>        -0.342940 
     16 C           1.531270   -2.506596   -0.043666 C.ar      1 <1>        -0.049674 
     17 C           3.654899   -1.207610    0.010117 C.ar      1 <1>        -0.049674 
     18 C          -5.128065   -0.003190    0.001855 C.3       1 <1>         0.043138 
     19 C          -5.166553    3.976946    0.025130 C.3       1 <1>         0.043243 
     20 C           2.247656   -3.712686   -0.058077 C.ar      1 <1>        -0.031056 
     21 C           4.410559   -2.483988   -0.005585 C.ar      1 <1>        -0.031056 
     22 C           3.726971   -3.719865   -0.039002 C.ar      1 <1>         0.075851 
     23 O           4.394229   -4.952415   -0.054813 O.3       1 <1>        -0.347912 
     24 C           5.828164   -5.040752   -0.038613 C.3       1 <1>         0.043026 
     25 H          -2.534000   -0.457862   -0.032346 H         1 <1>         0.067039 
     26 H          -1.697077    5.276888    0.061171 H         1 <1>         0.217446 
     27 H           2.945120    1.521306    0.038593 H         1 <1>         0.068219 
     28 H           0.447166   -2.546545   -0.058664 H         1 <1>         0.062503 
     29 H           4.233326   -0.294643    0.036417 H         1 <1>         0.062503 
     30 H          -6.227467    0.030481    0.002107 H         1 <1>         0.052871 
     31 H          -4.800122   -0.553126   -0.893535 H         1 <1>         0.052871 
     32 H          -4.797565   -0.525301    0.912941 H         1 <1>         0.052871 
     33 H          -5.604677    4.985561    0.039697 H         1 <1>         0.052872 
     34 H          -5.510684    3.467149   -0.887633 H         1 <1>         0.052872 
     35 H          -5.512985    3.439800    0.921212 H         1 <1>         0.052872 
     36 H           1.718761   -4.659546   -0.083595 H         1 <1>         0.064346 
     37 H           5.492221   -2.437629    0.009264 H         1 <1>         0.064346 
     38 H           6.098504   -6.106813   -0.056090 H         1 <1>         0.052869 
     39 H           6.263869   -4.558436   -0.927077 H         1 <1>         0.052869 
     40 H           6.241358   -4.593795    0.878629 H         1 <1>         0.052869 
@<TRIPOS>BOND
     1    1    2 1    
     2    1    3 1    
     3    1    4 2    
     4    2    5 2    
     5    2    6 1    
     6    3    7 1    
     7    4    8 1    
     8    4   25 1    
     9    5    9 1    
    10    5   10 1    
    11    6   11 1    
    12    6   12 2    
    13    7   11 2    
    14    7   13 1    
    15    8    9 2    
    16    8   14 1    
    17    9   15 1    
    18   10   26 1    
    19   11   27 1    
    20   13   16 1    
    21   13   17 2    
    22   14   18 1    
    23   15   19 1    
    24   16   20 2    
    25   16   28 1    
    26   17   21 1    
    27   17   29 1    
    28   18   30 1    
    29   18   31 1    
    30   18   32 1    
    31   19   33 1    
    32   19   34 1    
    33   19   35 1    
    34   20   22 1    
    35   20   36 1    
    36   21   22 2    
    37   21   37 1    
    38   22   23 1    
    39   23   24 1    
    40   24   38 1    
    41   24   39 1    
    42   24   40 1    
@<TRIPOS>SUBSTRUCTURE
     1 ****        1 TEMP              0 ****  ****    0 ROOT 
@<TRIPOS>NORMAL
@<TRIPOS>FF_PBC
FORCE_FIELD_SETUP_FEATURE Force Field Setup information
v1.0  0 0.000000 0.000000 0.000000 0.000000 0.000000 0.000000 NONE 0 0 0 0 1 0 0 0 0 0 0 0 0
