@<TRIPOS>MOLECULE
MOL002200
   56    60     1     1     0
SMALL
GASTEIGER


@<TRIPOS>ATOM
      1 O          -2.579848   -0.877711   -2.493251 O.3       1 <1>        -0.277953 
      2 C          -1.820498    0.237509   -2.407072 C.2       1 <1>         0.071089 
      3 C          -0.312843   -0.025421   -2.338758 C.3       1 <1>         0.054924 
      4 C          -0.336597   -1.488900   -2.616527 C.2       1 <1>         0.033767 
      5 C          -1.727510   -1.879717   -2.631129 C.2       1 <1>         0.295128 
      6 O          -1.747158    0.054426    2.063314 O.3       1 <1>        -0.274202 
      7 C          -0.629432   -0.579856    2.426694 C.2       1 <1>         0.086162 
      8 C           0.378829   -0.703295    1.351715 C.2       1 <1>        -0.007914 
      9 C          -0.137185   -0.050337    0.311029 C.2       1 <1>         0.034619 
     10 C          -1.437874    0.406563    0.816905 C.2       1 <1>         0.295407 
     11 C           0.814069   -2.135270   -2.803767 C.2       1 <1>        -0.070822 
     12 C           2.009154   -1.239906   -2.605033 C.3       1 <1>        -0.018680 
     13 C           1.857366   -0.679898   -1.155635 C.3       1 <1>        -0.026263 
     14 C           1.927406   -1.867030   -0.147940 C.3       1 <1>        -0.045000 
     15 C           1.714043   -1.392335    1.307360 C.3       1 <1>        -0.024491 
     16 C           0.530883    0.159051   -1.033207 C.3       1 <1>         0.009211 
     17 C           0.469441    0.560822   -3.552009 C.3       1 <1>        -0.036153 
     18 C           1.895618   -0.070600   -3.620943 C.3       1 <1>        -0.045285 
     19 O          -2.090203   -3.036813   -2.761214 O.2       1 <1>        -0.259166 
     20 O          -2.209578    1.088068    0.168134 O.2       1 <1>        -0.259157 
     21 C          -0.537047   -1.009155    3.694207 C.2       1 <1>        -0.053070 
     22 C           0.642657   -1.686472    4.349775 C.3       1 <1>        -0.032278 
     23 C           0.561397   -1.607133    5.899017 C.3       1 <1>        -0.052380 
     24 C           1.788472   -2.281858    6.566499 C.3       1 <1>        -0.064997 
     25 C          -2.423236    1.435320   -2.427189 C.2       1 <1>        -0.056602 
     26 C          -1.752444    2.786692   -2.351991 C.3       1 <1>        -0.032570 
     27 C          -2.671171    3.842948   -1.679492 C.3       1 <1>        -0.052389 
     28 C          -1.973837    5.225808   -1.591014 C.3       1 <1>        -0.064997 
     29 H           2.957558   -1.789538   -2.730329 H         1 <1>         0.034599 
     30 H           2.724775   -0.031808   -0.935953 H         1 <1>         0.031272 
     31 H           0.809372    1.223425   -0.999594 H         1 <1>         0.036609 
     32 H           0.872833   -3.195436   -3.049176 H         1 <1>         0.057969 
     33 H           2.906343   -2.369439   -0.228549 H         1 <1>         0.027143 
     34 H           1.146058   -2.614874   -0.360326 H         1 <1>         0.027143 
     35 H           1.740894   -2.284756    1.948502 H         1 <1>         0.031417 
     36 H           2.506689   -0.692686    1.615689 H         1 <1>         0.031417 
     37 H           0.552276    1.655498   -3.483449 H         1 <1>         0.027795 
     38 H          -0.090931    0.334101   -4.475476 H         1 <1>         0.027795 
     39 H           2.095588   -0.449570   -4.637456 H         1 <1>         0.027135 
     40 H           2.670882    0.677780   -3.385495 H         1 <1>         0.027135 
     41 H          -1.417346   -0.838744    4.315984 H         1 <1>         0.059779 
     42 H           1.575991   -1.192947    4.039349 H         1 <1>         0.030812 
     43 H           0.659918   -2.746182    4.049984 H         1 <1>         0.030812 
     44 H          -0.356115   -2.110391    6.248228 H         1 <1>         0.026559 
     45 H           0.515456   -0.549703    6.210226 H         1 <1>         0.026559 
     46 H           1.705374   -2.218842    7.663169 H         1 <1>         0.022987 
     47 H           2.719674   -1.781798    6.257402 H         1 <1>         0.022987 
     48 H           1.845753   -3.343735    6.280478 H         1 <1>         0.022987 
     49 H          -3.510325    1.421291   -2.513839 H         1 <1>         0.059471 
     50 H          -1.520968    3.114891   -3.377537 H         1 <1>         0.030802 
     51 H          -0.819656    2.731275   -1.776082 H         1 <1>         0.030802 
     52 H          -2.937680    3.507319   -0.663461 H         1 <1>         0.026559 
     53 H          -3.602005    3.949010   -2.261753 H         1 <1>         0.026559 
     54 H          -2.646153    5.959509   -1.118587 H         1 <1>         0.022987 
     55 H          -1.711198    5.588599   -2.597040 H         1 <1>         0.022987 
     56 H          -1.054501    5.156350   -0.988706 H         1 <1>         0.022987 
@<TRIPOS>BOND
     1    2    1 1    
     2    5    1 1    
     3    3    2 1    
     4    2   25 2    
     5    3    4 1    
     6   16    3 1    
     7    3   17 1    
     8    4    5 1    
     9    4   11 2    
    10    5   19 2    
    11    6    7 1    
    12   10    6 1    
    13    8    7 1    
    14    7   21 2    
    15    9    8 2    
    16    8   15 1    
    17    9   10 1    
    18    9   16 1    
    19   10   20 2    
    20   11   12 1    
    21   11   32 1    
    22   12   13 1    
    23   12   18 1    
    24   12   29 1    
    25   13   14 1    
    26   13   16 1    
    27   13   30 1    
    28   14   15 1    
    29   14   33 1    
    30   14   34 1    
    31   15   35 1    
    32   15   36 1    
    33   16   31 1    
    34   17   18 1    
    35   17   37 1    
    36   17   38 1    
    37   18   39 1    
    38   18   40 1    
    39   21   22 1    
    40   21   41 1    
    41   22   23 1    
    42   22   42 1    
    43   22   43 1    
    44   23   24 1    
    45   23   44 1    
    46   23   45 1    
    47   24   46 1    
    48   24   47 1    
    49   24   48 1    
    50   25   26 1    
    51   25   49 1    
    52   26   27 1    
    53   26   50 1    
    54   26   51 1    
    55   27   28 1    
    56   27   52 1    
    57   27   53 1    
    58   28   54 1    
    59   28   55 1    
    60   28   56 1    
@<TRIPOS>SUBSTRUCTURE
     1 ****        6 TEMP              0 ****  ****    0 ROOT 
@<TRIPOS>NORMAL
@<TRIPOS>FF_PBC
FORCE_FIELD_SETUP_FEATURE Force Field Setup information
v1.0  0 0.000000 0.000000 0.000000 0.000000 0.000000 0.000000 NONE 0 0 0 0 1 0 0 0 0 0 0 0 0
