@<TRIPOS>MOLECULE
MOL002161
   36    38     1     1     0
SMALL
GASTEIGER


@<TRIPOS>ATOM
      1 C          -2.160421    4.050999   -0.249038 C.ar      1 <1>        -0.046871 
      2 C          -3.580662    3.941991   -0.245871 C.ar      1 <1>        -0.050545 
      3 C          -4.242087    2.610621   -0.167256 C.ar      1 <1>         0.020427 
      4 C          -3.447380    1.419290   -0.093612 C.ar      1 <1>         0.020491 
      5 C          -1.973178    1.557512   -0.098396 C.ar      1 <1>         0.215206 
      6 C          -1.374829    2.800710   -0.171825 C.ar      1 <1>         0.059722 
      7 C           0.086477    2.588542   -0.155481 C.ar      1 <1>         0.063188 
      8 C           0.286237    1.133181   -0.067314 C.ar      1 <1>         0.240060 
      9 C           1.586158    0.590930   -0.031418 C.ar      1 <1>         0.135502 
     10 N           2.663583    1.475532   -0.082004 N.ar      1 <1>        -0.248935 
     11 C           2.505361    2.861369   -0.165936 C.ar      1 <1>         0.029272 
     12 C           1.152235    3.469096   -0.205918 C.ar      1 <1>        -0.029321 
     13 N          -0.987390    0.559301   -0.035892 N.ar      1 <1>        -0.202152 
     14 C          -5.752524    2.520051   -0.165386 C.2       1 <1>         0.150408 
     15 O          -6.427560    3.533906   -0.228028 O.2       1 <1>        -0.295697 
     16 C           1.838840   -0.898277    0.058879 C.2       1 <1>        -0.024199 
     17 C           3.083071   -1.393059    0.093079 C.2       1 <1>         0.012152 
     18 C           3.365296   -2.837569    0.180686 C.2       1 <1>         0.286642 
     19 O           4.529698   -3.204536    0.207348 O.2       1 <1>        -0.259878 
     20 O           2.345552   -3.709380    0.228726 O.3       1 <1>        -0.312145 
     21 C           1.471771   -5.962894    0.359581 C.3       1 <1>        -0.040969 
     22 C           2.749737   -5.091866    0.312764 C.3       1 <1>         0.054555 
     23 H          -1.670442    5.017503   -0.306092 H         1 <1>         0.062593 
     24 H          -4.185362    4.841950   -0.301533 H         1 <1>         0.062464 
     25 H          -3.907898    0.439228   -0.035696 H         1 <1>         0.069036 
     26 H           3.384747    3.496413   -0.202034 H         1 <1>         0.082980 
     27 H           1.008031    4.542174   -0.270945 H         1 <1>         0.064086 
     28 H          -1.185075   -0.429191    0.023174 H         1 <1>         0.453542 
     29 H          -6.263039    1.559102   -0.108738 H         1 <1>         0.108141 
     30 H           0.995253   -1.585624    0.097069 H         1 <1>         0.064269 
     31 H           3.943263   -0.724428    0.056144 H         1 <1>         0.067785 
     32 H           1.733621   -7.030935    0.424160 H         1 <1>         0.025189 
     33 H           0.864903   -5.691509    1.237429 H         1 <1>         0.025189 
     34 H           0.871923   -5.797809   -0.548984 H         1 <1>         0.025189 
     35 H           3.342586   -5.272389    1.226171 H         1 <1>         0.056313 
     36 H           3.349702   -5.379334   -0.568016 H         1 <1>         0.056313 
@<TRIPOS>BOND
     1    1    2 2    
     2    1    6 1    
     3    1   23 1    
     4    2    3 1    
     5    2   24 1    
     6    3    4 2    
     7    3   14 1    
     8    4    5 1    
     9    4   25 1    
    10    5    6 2    
    11    5   13 1    
    12    6    7 1    
    13    7    8 1    
    14    7   12 2    
    15    8    9 2    
    16    8   13 1    
    17    9   10 1    
    18    9   16 1    
    19   10   11 2    
    20   11   12 1    
    21   11   26 1    
    22   12   27 1    
    23   13   28 1    
    24   14   15 2    
    25   14   29 1    
    26   16   17 2    
    27   16   30 1    
    28   17   18 1    
    29   17   31 1    
    30   18   19 2    
    31   18   20 1    
    32   20   22 1    
    33   22   21 1    
    34   21   32 1    
    35   21   33 1    
    36   21   34 1    
    37   22   35 1    
    38   22   36 1    
@<TRIPOS>SUBSTRUCTURE
     1 ****        1 TEMP              0 ****  ****    0 ROOT 
@<TRIPOS>NORMAL
@<TRIPOS>FF_PBC
FORCE_FIELD_SETUP_FEATURE Force Field Setup information
v1.0  0 0.000000 0.000000 0.000000 0.000000 0.000000 0.000000 NONE 0 0 0 0 1 0 0 0 0 0 0 0 0
