@<TRIPOS>MOLECULE
MOL006127
   43    43     1     1     0
SMALL
GASTEIGER


@<TRIPOS>ATOM
      1 C           2.187276   -1.905032   -0.919226 C.2       1 <1>        -0.052081 
      2 C           1.861943   -0.646090   -0.591859 C.2       1 <1>        -0.031273 
      3 C           0.619457   -0.228007    0.094911 C.2       1 <1>         0.075899 
      4 C           0.144054    1.019658   -0.067265 C.2       1 <1>         0.010528 
      5 C          -1.084152    1.538136    0.574398 C.2       1 <1>         0.158527 
      6 C          -1.577134    2.963546    0.469745 C.3       1 <1>         0.009953 
      7 C          -0.508462    4.024912    0.089031 C.3       1 <1>        -0.046064 
      8 C          -1.072794    5.466739    0.222713 C.3       1 <1>        -0.052912 
      9 C          -0.011745    6.530858   -0.169403 C.3       1 <1>        -0.055900 
     10 C          -0.576204    7.968176   -0.021690 C.3       1 <1>        -0.065276 
     11 O          -0.005849   -1.115286    0.884601 O.3       1 <1>        -0.359723 
     12 O          -1.747666    0.757863    1.239838 O.2       1 <1>        -0.292596 
     13 C           1.280376   -3.097363   -0.703687 C.ar      1 <1>        -0.022352 
     14 C           1.845780   -4.349147   -0.147550 C.ar      1 <1>        -0.022001 
     15 C           1.048647   -5.482131    0.076679 C.ar      1 <1>         0.105959 
     16 C          -0.406102   -5.428069   -0.252567 C.ar      1 <1>         0.102471 
     17 C          -0.943598   -4.233528   -0.794851 C.ar      1 <1>        -0.028841 
     18 C          -0.083527   -3.051484   -1.031033 C.ar      1 <1>        -0.051999 
     19 O          -1.233742   -6.536032   -0.033068 O.3       1 <1>        -0.357268 
     20 O           1.669773   -6.624152    0.606798 O.3       1 <1>        -0.345331 
     21 C           0.945303   -7.824803    0.913711 C.3       1 <1>         0.043136 
     22 H           3.159745   -2.108817   -1.370033 H         1 <1>         0.062424 
     23 H           2.583866    0.133064   -0.842400 H         1 <1>         0.064339 
     24 H           0.700415    1.689796   -0.718583 H         1 <1>         0.067811 
     25 H          -2.410672    2.990381   -0.249345 H         1 <1>         0.034489 
     26 H          -1.975930    3.231538    1.461486 H         1 <1>         0.034489 
     27 H           0.366667    3.913111    0.750527 H         1 <1>         0.026937 
     28 H          -0.187331    3.873291   -0.954166 H         1 <1>         0.026937 
     29 H          -1.955307    5.574648   -0.429571 H         1 <1>         0.026531 
     30 H          -1.389312    5.643660    1.264062 H         1 <1>         0.026531 
     31 H           0.874861    6.423890    0.477836 H         1 <1>         0.026265 
     32 H           0.303359    6.373159   -1.214545 H         1 <1>         0.026265 
     33 H           0.190219    8.707606   -0.303029 H         1 <1>         0.022978 
     34 H          -1.452327    8.106723   -0.674330 H         1 <1>         0.022978 
     35 H          -0.878640    8.157429    1.020140 H         1 <1>         0.022978 
     36 H          -0.804195   -0.813737    1.309558 H         1 <1>         0.217315 
     37 H           2.901512   -4.395259    0.095027 H         1 <1>         0.065001 
     38 H          -1.997052   -4.168226   -1.044826 H         1 <1>         0.064421 
     39 H          -0.515396   -2.154034   -1.460819 H         1 <1>         0.062425 
     40 H          -2.157057   -6.382657   -0.198647 H         1 <1>         0.217422 
     41 H           1.662368   -8.548085    1.328414 H         1 <1>         0.052871 
     42 H           0.501019   -8.263189    0.007264 H         1 <1>         0.052871 
     43 H           0.169656   -7.635954    1.671451 H         1 <1>         0.052871 
@<TRIPOS>BOND
     1    1    2 2    
     2    1   13 1    
     3    1   22 1    
     4    2    3 1    
     5    2   23 1    
     6    3    4 2    
     7    3   11 1    
     8    4    5 1    
     9    4   24 1    
    10    5    6 1    
    11    5   12 2    
    12    6    7 1    
    13    6   25 1    
    14    6   26 1    
    15    7    8 1    
    16    7   27 1    
    17    7   28 1    
    18    8    9 1    
    19    8   29 1    
    20    8   30 1    
    21    9   10 1    
    22    9   31 1    
    23    9   32 1    
    24   10   33 1    
    25   10   34 1    
    26   10   35 1    
    27   11   36 1    
    28   13   14 1    
    29   13   18 2    
    30   14   15 2    
    31   14   37 1    
    32   15   16 1    
    33   15   20 1    
    34   16   17 2    
    35   16   19 1    
    36   17   18 1    
    37   17   38 1    
    38   18   39 1    
    39   19   40 1    
    40   20   21 1    
    41   21   41 1    
    42   21   42 1    
    43   21   43 1    
@<TRIPOS>SUBSTRUCTURE
     1 ****        1 TEMP              0 ****  ****    0 ROOT 
@<TRIPOS>NORMAL
@<TRIPOS>FF_PBC
FORCE_FIELD_SETUP_FEATURE Force Field Setup information
v1.0  0 0.000000 0.000000 0.000000 0.000000 0.000000 0.000000 NONE 0 0 0 0 1 0 0 0 0 0 0 0 0
