@<TRIPOS>MOLECULE
MOL000874
   22    22     1     1     0
SMALL
GASTEIGER


@<TRIPOS>ATOM
      1 C           2.543231    1.095628    0.000040 C.2       1 <1>         0.162575 
      2 C           2.607846    2.601518    0.000085 C.3       1 <1>        -0.001323 
      3 O           3.598091    0.482216    0.000006 O.2       1 <1>        -0.292269 
      4 C           1.223929    0.347219    0.000034 C.ar      1 <1>         0.046937 
      5 C           1.208149   -1.139170    0.000033 C.ar      1 <1>         0.085468 
      6 C          -0.038136   -1.833016    0.000016 C.ar      1 <1>        -0.001233 
      7 C          -1.325294   -1.102592    0.000001 C.ar      1 <1>         0.078289 
      8 C          -1.309963    0.317969    0.000012 C.ar      1 <1>        -0.030868 
      9 C          -0.020253    1.048212    0.000028 C.ar      1 <1>        -0.046357 
     10 O          -2.515347   -1.842226   -0.000024 O.3       1 <1>        -0.347829 
     11 C          -3.804230   -1.207352   -0.000188 C.3       1 <1>         0.043027 
     12 O           2.415024   -1.844820    0.000050 O.3       1 <1>        -0.359051 
     13 H           3.653496    2.946392    0.000090 H         1 <1>         0.030933 
     14 H           2.113635    2.998213    0.899253 H         1 <1>         0.030933 
     15 H           2.113625    2.998271   -0.899051 H         1 <1>         0.030933 
     16 H          -0.064247   -2.916609    0.000013 H         1 <1>         0.066929 
     17 H          -2.226195    0.895176    0.000006 H         1 <1>         0.064349 
     18 H          -0.047250    2.131500    0.000034 H         1 <1>         0.062610 
     19 H          -4.567708   -1.999228   -0.000231 H         1 <1>         0.052870 
     20 H          -3.942218   -0.593273   -0.903397 H         1 <1>         0.052870 
     21 H          -3.942412   -0.593189    0.902933 H         1 <1>         0.052870 
     22 H           2.326028   -2.790836    0.000157 H         1 <1>         0.217341 
@<TRIPOS>BOND
     1    1    2 1    
     2    1    3 2    
     3    1    4 1    
     4    2   13 1    
     5    2   14 1    
     6    2   15 1    
     7    4    5 1    
     8    4    9 2    
     9    5    6 2    
    10    5   12 1    
    11    6    7 1    
    12    6   16 1    
    13    7    8 2    
    14    7   10 1    
    15    8    9 1    
    16    8   17 1    
    17    9   18 1    
    18   10   11 1    
    19   11   19 1    
    20   11   20 1    
    21   11   21 1    
    22   12   22 1    
@<TRIPOS>SUBSTRUCTURE
     1 ****        1 TEMP              0 ****  ****    0 ROOT 
@<TRIPOS>NORMAL
@<TRIPOS>FF_PBC
FORCE_FIELD_SETUP_FEATURE Force Field Setup information
v1.0  0 0.000000 0.000000 0.000000 0.000000 0.000000 0.000000 NONE 0 0 0 0 1 0 0 0 0 0 0 0 0
