@<TRIPOS>MOLECULE
MOL000705
   22    21     1     1     0
SMALL
GASTEIGER


@<TRIPOS>ATOM
      1 C           0.397453   -0.360470    0.000103 C.3       1 <1>        -0.052691 
      2 C          -0.915795   -1.190268   -0.000098 C.3       1 <1>        -0.046641 
      3 C           0.103529    1.164920   -0.000129 C.3       1 <1>        -0.053295 
      4 C          -0.623114   -2.715083    0.000192 C.3       1 <1>         0.002777 
      5 C           1.415959    1.995565    0.000108 C.3       1 <1>        -0.055911 
      6 C          -1.887181   -3.535363   -0.000026 C.2       1 <1>         0.120308 
      7 C           1.119677    3.518044   -0.000118 C.3       1 <1>        -0.065276 
      8 O          -1.818655   -4.753576   -0.000310 O.2       1 <1>        -0.301035 
      9 H           0.990292   -0.616627    0.893640 H         1 <1>         0.026539 
     10 H           0.990704   -0.616834   -0.893097 H         1 <1>         0.026539 
     11 H          -1.508994   -0.936276   -0.894362 H         1 <1>         0.026918 
     12 H          -1.509416   -0.936024    0.893821 H         1 <1>         0.026918 
     13 H          -0.488763    1.422476   -0.893708 H         1 <1>         0.026520 
     14 H          -0.489199    1.422668    0.893105 H         1 <1>         0.026520 
     15 H          -0.037579   -2.983123    0.893966 H         1 <1>         0.033871 
     16 H          -0.037129   -2.983350   -0.893214 H         1 <1>         0.033871 
     17 H           2.011735    1.745040    0.893745 H         1 <1>         0.026265 
     18 H           2.012174    1.744858   -0.893189 H         1 <1>         0.026265 
     19 H          -2.872359   -3.069001    0.000095 H         1 <1>         0.102608 
     20 H           2.062490    4.087719    0.000056 H         1 <1>         0.022978 
     21 H           0.542305    3.797310   -0.895280 H         1 <1>         0.022978 
     22 H           0.541867    3.797495    0.894702 H         1 <1>         0.022978 
@<TRIPOS>BOND
     1    1    2 1    
     2    1    3 1    
     3    1    9 1    
     4    1   10 1    
     5    2    4 1    
     6    2   11 1    
     7    2   12 1    
     8    3    5 1    
     9    3   13 1    
    10    3   14 1    
    11    4    6 1    
    12    4   15 1    
    13    4   16 1    
    14    5    7 1    
    15    5   17 1    
    16    5   18 1    
    17    6    8 2    
    18    6   19 1    
    19    7   20 1    
    20    7   21 1    
    21    7   22 1    
@<TRIPOS>SUBSTRUCTURE
     1 ****        1 TEMP              0 ****  ****    0 ROOT 
@<TRIPOS>NORMAL
@<TRIPOS>FF_PBC
FORCE_FIELD_SETUP_FEATURE Force Field Setup information
v1.0  0 0.000000 0.000000 0.000000 0.000000 0.000000 0.000000 NONE 0 0 0 0 1 0 0 0 0 0 0 0 0
