@<TRIPOS>MOLECULE
MOL006962
   48    47     1     1     0
SMALL
GASTEIGER


@<TRIPOS>ATOM
      1 C           9.035463    1.415243    0.000052 C.2       1 <1>         0.283708 
      2 C           8.686979   -0.020564   -0.000092 C.2       1 <1>         0.005826 
      3 C           7.455441   -0.551965   -0.000101 C.2       1 <1>        -0.078363 
      4 C           6.185121    0.265132    0.000057 C.3       1 <1>        -0.034287 
      5 C           4.914634   -0.627779   -0.000073 C.3       1 <1>        -0.049604 
      6 C           3.621398    0.232434    0.000087 C.3       1 <1>        -0.052779 
      7 C           2.347427   -0.656030   -0.000099 C.3       1 <1>        -0.053048 
      8 C           1.059204    0.211482    0.000070 C.3       1 <1>        -0.053057 
      9 C          -0.220274   -0.668978   -0.000127 C.3       1 <1>        -0.053057 
     10 C          -1.503003    0.206705    0.000075 C.3       1 <1>        -0.053057 
     11 C          -2.787978   -0.665639   -0.000139 C.3       1 <1>        -0.053057 
     12 C          -4.065822    0.217407    0.000074 C.3       1 <1>        -0.053057 
     13 C          -5.355425   -0.648156   -0.000142 C.3       1 <1>        -0.053065 
     14 C          -6.629414    0.240493    0.000100 C.3       1 <1>        -0.053306 
     15 C          -7.921848   -0.620441   -0.000121 C.3       1 <1>        -0.055911 
     16 C          -9.191269    0.270650    0.000106 C.3       1 <1>        -0.065276 
     17 O          10.214016    1.736475   -0.000013 O.2       1 <1>        -0.260093 
     18 O           8.079901    2.347501    0.000263 O.3       1 <1>        -0.327936 
     19 H           9.537879   -0.703476   -0.000218 H         1 <1>         0.067395 
     20 H           7.367496   -1.640421   -0.000212 H         1 <1>         0.057383 
     21 H           6.172196    0.904930    0.897005 H         1 <1>         0.030743 
     22 H           6.172174    0.905237   -0.896687 H         1 <1>         0.030743 
     23 H           4.924543   -1.272972   -0.894345 H         1 <1>         0.026822 
     24 H           4.924556   -1.273273    0.893918 H         1 <1>         0.026822 
     25 H           3.614256    0.878470    0.893455 H         1 <1>         0.026538 
     26 H           3.614253    0.878816   -0.893082 H         1 <1>         0.026538 
     27 H           2.352519   -1.301829   -0.893630 H         1 <1>         0.026529 
     28 H           2.352528   -1.302183    0.893176 H         1 <1>         0.026529 
     29 H           1.055960    0.857530    0.893507 H         1 <1>         0.026528 
     30 H           1.055967    0.857902   -0.893057 H         1 <1>         0.026528 
     31 H          -0.219080   -1.314738   -0.893680 H         1 <1>         0.026528 
     32 H          -0.219079   -1.315145    0.893174 H         1 <1>         0.026528 
     33 H          -1.502190    0.852640    0.893561 H         1 <1>         0.026528 
     34 H          -1.502181    0.853049   -0.893082 H         1 <1>         0.026528 
     35 H          -2.790429   -1.311398   -0.893704 H         1 <1>         0.026528 
     36 H          -2.790430   -1.311837    0.893145 H         1 <1>         0.026528 
     37 H          -4.061483    0.863381    0.893536 H         1 <1>         0.026528 
     38 H          -4.061477    0.863816   -0.893028 H         1 <1>         0.026528 
     39 H          -5.361148   -1.293933   -0.893669 H         1 <1>         0.026528 
     40 H          -5.361150   -1.294392    0.893071 H         1 <1>         0.026528 
     41 H          -6.623483    0.886367    0.893584 H         1 <1>         0.026520 
     42 H          -6.623476    0.886836   -0.893072 H         1 <1>         0.026520 
     43 H          -7.935121   -1.266538   -0.893838 H         1 <1>         0.026265 
     44 H          -7.935124   -1.266997    0.893205 H         1 <1>         0.026265 
     45 H         -10.095902   -0.357867   -0.000073 H         1 <1>         0.022978 
     46 H          -9.210602    0.911724    0.895258 H         1 <1>         0.022978 
     47 H          -9.210600    0.912205   -0.894733 H         1 <1>         0.022978 
     48 H           8.434274    3.229928    0.000341 H         1 <1>         0.220537 
@<TRIPOS>BOND
     1    1    2 1    
     2    1   17 2    
     3    1   18 1    
     4    2    3 2    
     5    2   19 1    
     6    3    4 1    
     7    3   20 1    
     8    4    5 1    
     9    4   21 1    
    10    4   22 1    
    11    5    6 1    
    12    5   23 1    
    13    5   24 1    
    14    6    7 1    
    15    6   25 1    
    16    6   26 1    
    17    7    8 1    
    18    7   27 1    
    19    7   28 1    
    20    8    9 1    
    21    8   29 1    
    22    8   30 1    
    23    9   10 1    
    24    9   31 1    
    25    9   32 1    
    26   10   11 1    
    27   10   33 1    
    28   10   34 1    
    29   11   12 1    
    30   11   35 1    
    31   11   36 1    
    32   12   13 1    
    33   12   37 1    
    34   12   38 1    
    35   13   14 1    
    36   13   39 1    
    37   13   40 1    
    38   14   15 1    
    39   14   41 1    
    40   14   42 1    
    41   15   16 1    
    42   15   43 1    
    43   15   44 1    
    44   16   45 1    
    45   16   46 1    
    46   16   47 1    
    47   18   48 1    
@<TRIPOS>SUBSTRUCTURE
     1 ****        1 TEMP              0 ****  ****    0 ROOT 
@<TRIPOS>NORMAL
@<TRIPOS>FF_PBC
FORCE_FIELD_SETUP_FEATURE Force Field Setup information
v1.0  0 0.000000 0.000000 0.000000 0.000000 0.000000 0.000000 NONE 0 0 0 0 1 0 0 0 0 0 0 0 0
