@<TRIPOS>MOLECULE
MOL006939
   13    13     1     1     0
SMALL
GASTEIGER


@<TRIPOS>ATOM
      1 C           1.255535   -0.085108   -0.084819 C.ar      1 <1>         0.048560 
      2 N           1.469908    1.261919   -0.141799 N.ar      1 <1>        -0.259991 
      3 C           0.412460    2.135369   -0.095381 C.ar      1 <1>         0.045666 
      4 C          -0.912482    1.653220    0.011983 C.ar      1 <1>         0.045948 
      5 N          -1.161659    0.305130    0.071422 N.ar      1 <1>        -0.257159 
      6 C          -0.133061   -0.592554    0.027778 C.ar      1 <1>         0.056236 
      7 C          -0.419114   -2.091428    0.094503 C.3       1 <1>        -0.020888 
      8 H           2.093193   -0.772130   -0.121743 H         1 <1>         0.084760 
      9 H           0.602235    3.202255   -0.141900 H         1 <1>         0.084484 
     10 H          -1.744135    2.348475    0.048227 H         1 <1>         0.084494 
     11 H          -1.502732   -2.264400    0.175125 H         1 <1>         0.029297 
     12 H           0.081927   -2.522512    0.973818 H         1 <1>         0.029297 
     13 H          -0.042373   -2.578533   -0.817015 H         1 <1>         0.029297 
@<TRIPOS>BOND
     1    1    2 2    
     2    1    6 1    
     3    1    8 1    
     4    2    3 1    
     5    3    4 2    
     6    3    9 1    
     7    4    5 1    
     8    4   10 1    
     9    5    6 2    
    10    6    7 1    
    11    7   11 1    
    12    7   12 1    
    13    7   13 1    
@<TRIPOS>SUBSTRUCTURE
     1 ****        1 TEMP              0 ****  ****    0 ROOT 
@<TRIPOS>NORMAL
@<TRIPOS>FF_PBC
FORCE_FIELD_SETUP_FEATURE Force Field Setup information
v1.0  0 0.000000 0.000000 0.000000 0.000000 0.000000 0.000000 NONE 0 0 0 0 1 0 0 0 0 0 0 0 0
