@<TRIPOS>MOLECULE
MOL001522
   40    42     1     1     0
SMALL
GASTEIGER


@<TRIPOS>ATOM
      1 O          -4.296327    2.740752    0.703894 O.3       1 <1>        -0.345341 
      2 O          -4.595023    0.320415    0.147082 O.3       1 <1>        -0.357262 
      3 O           4.710293   -4.608038   -0.551497 O.3       1 <1>        -0.359832 
      4 N           1.251525    0.540338   -1.026206 N.3       1 <1>        -0.308704 
      5 C           0.098218   -0.317276   -0.673004 C.3       1 <1>         0.037196 
      6 C          -1.145830    0.539840   -0.329920 C.ar      1 <1>        -0.024369 
      7 C          -0.983502    1.998123   -0.023322 C.ar      1 <1>        -0.038891 
      8 C           0.403434    2.659411   -0.145416 C.3       1 <1>        -0.014693 
      9 C           1.554259    1.631418   -0.081709 C.3       1 <1>         0.000439 
     10 C           0.408171   -1.301644    0.494283 C.3       1 <1>        -0.008081 
     11 C          -2.132636    0.105843   -0.306599 C.ar      1 <1>        -0.024458 
     12 C          -1.847354    2.571942    0.266186 C.ar      1 <1>        -0.025628 
     13 C           1.596956   -2.238390    0.179620 C.ar      1 <1>        -0.045412 
     14 C          -3.325631    0.917737    0.086715 C.ar      1 <1>         0.102762 
     15 C          -3.200579    1.951983    0.326642 C.ar      1 <1>         0.105678 
     16 C           1.483024   -3.149790   -0.389533 C.ar      1 <1>        -0.056083 
     17 C           2.958389   -1.874348    0.683551 C.ar      1 <1>        -0.056083 
     18 C           2.656635   -4.032171   -0.657232 C.ar      1 <1>        -0.031682 
     19 C           3.798123   -2.507003    0.481501 C.ar      1 <1>        -0.031682 
     20 C           3.618249   -3.770969   -0.296395 C.ar      1 <1>         0.072598 
     21 C          -4.725306    3.695814   -0.282274 C.3       1 <1>         0.043136 
     22 H          -0.114369   -0.907060   -1.582516 H         1 <1>         0.051322 
     23 H           0.431811    3.155748   -1.129067 H         1 <1>         0.032559 
     24 H           0.577942    3.422506    0.634127 H         1 <1>         0.032559 
     25 H           1.676495    1.266375    0.949240 H         1 <1>         0.042733 
     26 H           2.493350    2.135843   -0.368037 H         1 <1>         0.042733 
     27 H           0.610507   -0.737405    1.413293 H         1 <1>         0.033155 
     28 H          -0.485935   -1.904531    0.714747 H         1 <1>         0.033155 
     29 H           2.136123   -0.049156   -1.241052 H         1 <1>         0.122527 
     30 H          -2.301044   -0.937052   -0.558798 H         1 <1>         0.064735 
     31 H          -1.784132    3.626373    0.517743 H         1 <1>         0.064693 
     32 H           0.519311   -3.464701   -0.784191 H         1 <1>         0.062108 
     33 H           3.066743   -0.954592    1.255035 H         1 <1>         0.062108 
     34 H           2.495895   -4.945392   -1.224735 H         1 <1>         0.064328 
     35 H           4.799021   -2.251818    0.832653 H         1 <1>         0.064328 
     36 H          -4.607854   -0.597880   -0.092909 H         1 <1>         0.217422 
     37 H          -5.001273    3.185242   -1.218905 H         1 <1>         0.052871 
     38 H          -3.945770    4.445332   -0.491618 H         1 <1>         0.052871 
     39 H          -5.612132    4.215202    0.110820 H         1 <1>         0.052871 
     40 H           5.477212   -4.393948   -0.031120 H         1 <1>         0.217313 
@<TRIPOS>BOND
     1   15    1 1    
     2    1   21 1    
     3   14    2 1    
     4    2   36 1    
     5   20    3 1    
     6    3   40 1    
     7    5    4 1    
     8    4    9 1    
     9    4   29 1    
    10    5    6 1    
    11   10    5 1    
    12    5   22 1    
    13    6    7 1    
    14    6   11 2    
    15    7    8 1    
    16    7   12 2    
    17    9    8 1    
    18    8   23 1    
    19    8   24 1    
    20    9   25 1    
    21    9   26 1    
    22   13   10 1    
    23   10   27 1    
    24   10   28 1    
    25   11   14 1    
    26   11   30 1    
    27   12   15 1    
    28   12   31 1    
    29   16   13 2    
    30   13   17 1    
    31   14   15 2    
    32   18   16 1    
    33   16   32 1    
    34   17   19 2    
    35   17   33 1    
    36   18   20 2    
    37   18   34 1    
    38   19   20 1    
    39   19   35 1    
    40   21   37 1    
    41   21   38 1    
    42   21   39 1    
@<TRIPOS>SUBSTRUCTURE
     1 ****        4 TEMP              0 ****  ****    0 ROOT 
@<TRIPOS>NORMAL
@<TRIPOS>FF_PBC
FORCE_FIELD_SETUP_FEATURE Force Field Setup information
v1.0  0 0.000000 0.000000 0.000000 0.000000 0.000000 0.000000 NONE 0 0 0 0 1 0 0 0 0 0 0 0 0
