@<TRIPOS>MOLECULE
MOL002547
   26    27     1     1     0
SMALL
GASTEIGER


@<TRIPOS>ATOM
      1 C           0.657922    0.835192   -0.883112 C.3       1 <1>        -0.014129 
      2 C           0.688526   -0.699285   -0.634551 C.3       1 <1>        -0.028061 
      3 C           1.643328    0.245840    0.147266 C.3       1 <1>        -0.024979 
      4 C          -0.545398    1.584939   -0.380360 C.2       1 <1>        -0.083788 
      5 C          -0.611983   -1.249884    0.011060 C.3       1 <1>        -0.043117 
      6 C           3.129099    0.187658   -0.291982 C.3       1 <1>        -0.058998 
      7 C           1.385859    0.583817    1.641011 C.3       1 <1>        -0.058998 
      8 C          -1.721060    0.969086   -0.216651 C.2       1 <1>        -0.084799 
      9 C          -1.862766   -0.500769   -0.522000 C.3       1 <1>        -0.025441 
     10 C          -3.160267   -1.079611    0.102557 C.3       1 <1>        -0.058946 
     11 H           1.103295    1.172519   -1.832209 H         1 <1>         0.035107 
     12 H           1.071601   -1.224579   -1.524991 H         1 <1>         0.031211 
     13 H          -0.435841    2.646180   -0.155144 H         1 <1>         0.057208 
     14 H          -0.689004   -2.316126   -0.258301 H         1 <1>         0.027381 
     15 H          -0.575918   -1.201686    1.108293 H         1 <1>         0.027381 
     16 H           3.644736   -0.585190    0.297252 H         1 <1>         0.023525 
     17 H           3.605013    1.159979   -0.096994 H         1 <1>         0.023525 
     18 H           3.247160   -0.050151   -1.360029 H         1 <1>         0.023525 
     19 H           0.334935    0.780019    1.895116 H         1 <1>         0.023525 
     20 H           1.748656   -0.251216    2.258814 H         1 <1>         0.023525 
     21 H           1.961735    1.485581    1.898353 H         1 <1>         0.023525 
     22 H          -2.579499    1.542120    0.136899 H         1 <1>         0.057173 
     23 H          -1.917135   -0.615610   -1.618258 H         1 <1>         0.034034 
     24 H          -3.254515   -2.150124   -0.135629 H         1 <1>         0.023536 
     25 H          -3.147307   -0.961183    1.196811 H         1 <1>         0.023536 
     26 H          -4.042853   -0.555765   -0.296989 H         1 <1>         0.023536 
@<TRIPOS>BOND
     1    1    2 1    
     2    1    3 1    
     3    1    4 1    
     4    1   11 1    
     5    2    3 1    
     6    2    5 1    
     7    2   12 1    
     8    3    6 1    
     9    3    7 1    
    10    4    8 2    
    11    4   13 1    
    12    5    9 1    
    13    5   14 1    
    14    5   15 1    
    15    6   16 1    
    16    6   17 1    
    17    6   18 1    
    18    7   19 1    
    19    7   20 1    
    20    7   21 1    
    21    8    9 1    
    22    8   22 1    
    23    9   10 1    
    24    9   23 1    
    25   10   24 1    
    26   10   25 1    
    27   10   26 1    
@<TRIPOS>SUBSTRUCTURE
     1 ****        1 TEMP              0 ****  ****    0 ROOT 
@<TRIPOS>NORMAL
@<TRIPOS>FF_PBC
FORCE_FIELD_SETUP_FEATURE Force Field Setup information
v1.0  0 0.000000 0.000000 0.000000 0.000000 0.000000 0.000000 NONE 0 0 0 0 1 0 0 0 0 0 0 0 0
