@<TRIPOS>MOLECULE
MOL000040
   22    23     1     1     0
SMALL
GASTEIGER


@<TRIPOS>ATOM
      1 C           3.633906    0.903910    0.002156 C.2       1 <1>         0.291579 
      2 C           3.656099   -0.572776   -0.004538 C.2       1 <1>         0.010953 
      3 C           2.536613   -1.301518   -0.005456 C.2       1 <1>        -0.046363 
      4 C           1.221738   -0.561996    0.000711 C.ar      1 <1>         0.008365 
      5 C           1.264660    0.916224    0.008082 C.ar      1 <1>         0.096165 
      6 O           2.485617    1.594832    0.008293 O.3       1 <1>        -0.273708 
      7 C           0.069068    1.642597    0.014817 C.ar      1 <1>         0.001831 
      8 C          -1.249416    0.955098    0.014537 C.ar      1 <1>         0.104957 
      9 C          -1.287625   -0.480272    0.006217 C.ar      1 <1>         0.106123 
     10 C          -0.011330   -1.233209   -0.000379 C.ar      1 <1>        -0.019519 
     11 O           4.688807    1.516238    0.002143 O.2       1 <1>        -0.259480 
     12 O          -2.480554   -1.220109    0.004071 O.3       1 <1>        -0.345329 
     13 C          -3.780890   -0.611123    0.002311 C.3       1 <1>         0.043136 
     14 O          -2.427728    1.708648    0.022129 O.3       1 <1>        -0.357210 
     15 H           4.626621   -1.069380   -0.008828 H         1 <1>         0.067748 
     16 H           2.566283   -2.391854   -0.010429 H         1 <1>         0.062606 
     17 H           0.120457    2.725494    0.020061 H         1 <1>         0.067029 
     18 H          -0.041507   -2.317077   -0.005979 H         1 <1>         0.065082 
     19 H          -4.525657   -1.420253   -0.003349 H         1 <1>         0.052871 
     20 H          -3.931395    0.000435   -0.900337 H         1 <1>         0.052871 
     21 H          -3.937533   -0.006981    0.908860 H         1 <1>         0.052871 
     22 H          -2.289975    2.648711    0.044796 H         1 <1>         0.217423 
@<TRIPOS>BOND
     1    1    2 1    
     2    1    6 1    
     3    1   11 2    
     4    2    3 2    
     5    2   15 1    
     6    3    4 1    
     7    3   16 1    
     8    4    5 1    
     9    4   10 2    
    10    5    6 1    
    11    5    7 2    
    12    7    8 1    
    13    7   17 1    
    14    8    9 2    
    15    8   14 1    
    16    9   10 1    
    17    9   12 1    
    18   10   18 1    
    19   12   13 1    
    20   13   19 1    
    21   13   20 1    
    22   13   21 1    
    23   14   22 1    
@<TRIPOS>SUBSTRUCTURE
     1 ****        1 TEMP              0 ****  ****    0 ROOT 
@<TRIPOS>NORMAL
@<TRIPOS>FF_PBC
FORCE_FIELD_SETUP_FEATURE Force Field Setup information
v1.0  0 0.000000 0.000000 0.000000 0.000000 0.000000 0.000000 NONE 0 0 0 0 1 0 0 0 0 0 0 0 0
