@<TRIPOS>MOLECULE
MOL002101
   34    35     1     1     0
SMALL
GASTEIGER


@<TRIPOS>ATOM
      1 C           0.982823   -2.661421    0.485829 C.2       1 <1>         0.292959 
      2 O           1.924864   -1.720644    0.488396 O.3       1 <1>        -0.303862 
      3 C           1.234673   -0.445726    0.541030 C.3       1 <1>         0.090201 
      4 C          -0.224378   -0.851491    0.507873 C.2       1 <1>        -0.029107 
      5 C          -1.350876    0.146731    0.514465 C.3       1 <1>        -0.026057 
      6 C          -2.697144   -0.590017    0.258097 C.3       1 <1>        -0.020306 
      7 C          -2.768643   -1.931075    1.039293 C.3       1 <1>         0.085659 
      8 C          -1.687654   -2.911690    0.503097 C.3       1 <1>         0.111552 
      9 C          -0.383727   -2.168757    0.495627 C.2       1 <1>         0.056444 
     10 O           1.247531   -3.851707    0.470701 O.2       1 <1>        -0.259463 
     11 O          -2.026626   -3.318176   -0.835279 O.3       1 <1>        -0.384417 
     12 O          -2.561724   -1.629849    2.432865 O.3       1 <1>        -0.388883 
     13 C           1.701521    0.439416   -0.646312 C.3       1 <1>        -0.022112 
     14 C           1.682044    1.957814   -0.310424 C.3       1 <1>        -0.050640 
     15 C           2.075731    2.811818   -1.546424 C.3       1 <1>        -0.055821 
     16 C           2.084380    4.325243   -1.207172 C.3       1 <1>        -0.065275 
     17 H           1.473061    0.020059    1.510902 H         1 <1>         0.064939 
     18 H          -1.217503    0.910160   -0.266171 H         1 <1>         0.031182 
     19 H          -1.361467    0.638672    1.499980 H         1 <1>         0.031182 
     20 H          -3.534263    0.063017    0.555500 H         1 <1>         0.029403 
     21 H          -2.801031   -0.807375   -0.818257 H         1 <1>         0.029403 
     22 H          -3.764807   -2.386307    0.893176 H         1 <1>         0.062249 
     23 H          -1.619923   -3.791843    1.164975 H         1 <1>         0.067134 
     24 H          -1.383041   -3.909196   -1.215709 H         1 <1>         0.210347 
     25 H          -2.626822   -2.391920    2.999943 H         1 <1>         0.209902 
     26 H           2.742443    0.169832   -0.889793 H         1 <1>         0.029352 
     27 H           1.082006    0.218054   -1.529915 H         1 <1>         0.029352 
     28 H           0.684646    2.266284    0.035205 H         1 <1>         0.026610 
     29 H           2.396438    2.155967    0.506035 H         1 <1>         0.026610 
     30 H           3.078501    2.515856   -1.897482 H         1 <1>         0.026266 
     31 H           1.356953    2.630412   -2.363089 H         1 <1>         0.026266 
     32 H           2.362544    4.911638   -2.097224 H         1 <1>         0.022978 
     33 H           1.087116    4.650136   -0.871724 H         1 <1>         0.022978 
     34 H           2.812255    4.535790   -0.408115 H         1 <1>         0.022978 
@<TRIPOS>BOND
     1    1    2 1    
     2    1    9 1    
     3    1   10 2    
     4    2    3 1    
     5    3    4 1    
     6    3   13 1    
     7    3   17 1    
     8    4    5 1    
     9    4    9 2    
    10    5    6 1    
    11    5   18 1    
    12    5   19 1    
    13    6    7 1    
    14    6   20 1    
    15    6   21 1    
    16    7    8 1    
    17    7   12 1    
    18    7   22 1    
    19    8    9 1    
    20    8   11 1    
    21    8   23 1    
    22   11   24 1    
    23   12   25 1    
    24   13   14 1    
    25   13   26 1    
    26   13   27 1    
    27   14   15 1    
    28   14   28 1    
    29   14   29 1    
    30   15   16 1    
    31   15   30 1    
    32   15   31 1    
    33   16   32 1    
    34   16   33 1    
    35   16   34 1    
@<TRIPOS>SUBSTRUCTURE
     1 ****        1 TEMP              0 ****  ****    0 ROOT 
@<TRIPOS>NORMAL
@<TRIPOS>FF_PBC
FORCE_FIELD_SETUP_FEATURE Force Field Setup information
v1.0  0 0.000000 0.000000 0.000000 0.000000 0.000000 0.000000 NONE 0 0 0 0 1 0 0 0 0 0 0 0 0
