@<TRIPOS>MOLECULE
MOL000666
   19    18     1     1     0
SMALL
GASTEIGER


@<TRIPOS>ATOM
      1 C          -0.847715   -0.395117   -0.000117 C.3       1 <1>        -0.046650 
      2 C           0.510263    0.358873    0.000078 C.3       1 <1>        -0.052931 
      3 C          -2.044741    0.593610    0.000154 C.3       1 <1>         0.002777 
      4 C           1.706345   -0.631840   -0.000139 C.3       1 <1>        -0.055901 
      5 C          -3.370848   -0.121930   -0.000029 C.2       1 <1>         0.120308 
      6 C           3.062342    0.120964    0.000083 C.3       1 <1>        -0.065276 
      7 O          -4.406920    0.522674   -0.000237 O.2       1 <1>        -0.301035 
      8 H          -0.909219   -1.037372   -0.894369 H         1 <1>         0.026918 
      9 H          -0.909210   -1.037844    0.893806 H         1 <1>         0.026918 
     10 H           0.570975    1.001932    0.893619 H         1 <1>         0.026530 
     11 H           0.570997    1.002369   -0.893137 H         1 <1>         0.026530 
     12 H          -1.998675    1.235920    0.893941 H         1 <1>         0.033871 
     13 H          -1.998673    1.236378   -0.893302 H         1 <1>         0.033871 
     14 H           1.652540   -1.275941   -0.893768 H         1 <1>         0.026265 
     15 H           1.652503   -1.276386    0.893174 H         1 <1>         0.026265 
     16 H          -3.434175   -1.210057    0.000028 H         1 <1>         0.102608 
     17 H           3.895779   -0.599392   -0.000074 H         1 <1>         0.022978 
     18 H           3.149194    0.756358    0.895262 H         1 <1>         0.022978 
     19 H           3.149240    0.756802   -0.894773 H         1 <1>         0.022978 
@<TRIPOS>BOND
     1    1    2 1    
     2    1    3 1    
     3    1    8 1    
     4    1    9 1    
     5    2    4 1    
     6    2   10 1    
     7    2   11 1    
     8    3    5 1    
     9    3   12 1    
    10    3   13 1    
    11    4    6 1    
    12    4   14 1    
    13    4   15 1    
    14    5    7 2    
    15    5   16 1    
    16    6   17 1    
    17    6   18 1    
    18    6   19 1    
@<TRIPOS>SUBSTRUCTURE
     1 ****        1 TEMP              0 ****  ****    0 ROOT 
@<TRIPOS>NORMAL
@<TRIPOS>FF_PBC
FORCE_FIELD_SETUP_FEATURE Force Field Setup information
v1.0  0 0.000000 0.000000 0.000000 0.000000 0.000000 0.000000 NONE 0 0 0 0 1 0 0 0 0 0 0 0 0
