@<TRIPOS>MOLECULE
MOL004896
  122   128     1     1     0
SMALL
GASTEIGER


@<TRIPOS>ATOM
      1 C          22.392437  -33.841545   -0.161823 C.3       1 <1>         0.053721 
      2 C          23.591012  -33.304287    0.738146 C.3       1 <1>        -0.038057 
      3 C          23.966664  -31.788594    1.026435 C.3       1 <1>        -0.046118 
      4 C          23.068366  -30.701080    0.240443 C.3       1 <1>        -0.025453 
      5 C          21.657976  -31.288794   -0.247657 C.3       1 <1>        -0.013007 
      6 C          21.741871  -32.674401   -1.014025 C.3       1 <1>        -0.031533 
      7 C          22.693016  -29.479066    1.248415 C.3       1 <1>        -0.046277 
      8 C          21.168884  -29.054266    1.479505 C.3       1 <1>        -0.042891 
      9 C          20.170314  -29.078208    0.239165 C.3       1 <1>        -0.005120 
     10 C          20.406553  -30.432299   -0.457476 C.2       1 <1>        -0.063388 
     11 C          18.584932  -28.822649    0.402122 C.3       1 <1>        -0.019373 
     12 C          17.540955  -30.046741    0.414564 C.3       1 <1>        -0.025735 
     13 C          18.042486  -31.147017   -0.562568 C.3       1 <1>        -0.030614 
     14 C          19.422346  -31.007064   -1.135415 C.2       1 <1>        -0.083647 
     15 C          17.950057  -28.197488   -0.915036 C.3       1 <1>        -0.046267 
     16 C          16.643501  -27.478703   -0.544595 C.3       1 <1>        -0.048527 
     17 C          15.622783  -28.289724    0.349953 C.3       1 <1>        -0.025478 
     18 C          15.930265  -29.824355    0.215619 C.3       1 <1>        -0.024878 
     19 C          14.171225  -27.651927    0.291040 C.3       1 <1>         0.020632 
     20 C          13.595425  -28.070372   -1.105269 C.3       1 <1>         0.069511 
     21 C          13.637754  -29.623460   -1.280360 C.3       1 <1>        -0.025385 
     22 C          15.109736  -30.231885   -1.111802 C.3       1 <1>        -0.044709 
     23 O          23.572014  -34.806670   -2.155914 O.3       1 <1>        -0.330857 
     24 C          21.222241  -34.587039    0.631221 C.3       1 <1>        -0.050480 
     25 C          22.962419  -35.005019   -0.995173 C.2       1 <1>         0.265560 
     26 O          22.891724  -36.170822   -0.606125 O.2       1 <1>        -0.264567 
     27 C          15.341474  -30.777359    1.328837 C.3       1 <1>        -0.059008 
     28 C          18.496069  -28.041492    1.795852 C.3       1 <1>        -0.058491 
     29 C          20.728224  -27.848498   -0.600698 C.3       1 <1>        -0.055324 
     30 C          23.915588  -30.380554   -1.088220 C.3       1 <1>        -0.059017 
     31 C          14.354763  -26.082668    0.376007 C.3       1 <1>         0.052209 
     32 C          13.232941  -28.031251    1.515236 C.3       1 <1>        -0.054821 
     33 O          12.563242  -27.236003   -1.703185 O.3       1 <1>        -0.344781 
     34 C           8.630567  -28.105482   -1.084877 C.3       1 <1>         0.119040 
     35 C           9.699368  -28.481681   -0.027442 C.3       1 <1>         0.174377 
     36 O          10.939424  -28.439430   -0.736037 O.3       1 <1>        -0.332678 
     37 C          11.369968  -27.096710   -0.951268 C.3       1 <1>         0.189108 
     38 C          10.282634  -26.101448   -1.431387 C.3       1 <1>         0.140651 
     39 C           9.104065  -26.923213   -2.003318 C.3       1 <1>         0.114864 
     40 C           9.545717  -29.900541    0.474123 C.2       1 <1>         0.291467 
     41 O           8.344390  -30.437927    0.321085 O.3       1 <1>        -0.329249 
     42 O          10.483319  -30.504105    0.964641 O.2       1 <1>        -0.262180 
     43 O           7.286040  -27.981620   -0.594624 O.3       1 <1>        -0.386033 
     44 O           9.539369  -27.386193   -3.307379 O.3       1 <1>        -0.386378 
     45 C           8.528313  -23.664078    1.345733 C.3       1 <1>         0.174377 
     46 O           9.970239  -23.708362    1.309729 O.3       1 <1>        -0.332684 
     47 C          10.477645  -24.115404    0.025870 C.3       1 <1>         0.189056 
     48 C          10.318805  -22.895128   -0.927933 C.3       1 <1>         0.134152 
     49 C           8.960467  -22.178724   -0.661248 C.3       1 <1>         0.114497 
     50 C           7.945461  -23.146496   -0.004711 C.3       1 <1>         0.119030 
     51 C           7.923033  -25.013580    1.690243 C.2       1 <1>         0.291467 
     52 O           6.628280  -25.250107    1.451731 O.3       1 <1>        -0.329249 
     53 O           8.598401  -25.906261    2.184629 O.2       1 <1>        -0.262180 
     54 O           9.729233  -25.301355   -0.348896 O.3       1 <1>        -0.337745 
     55 O           9.140122  -21.029537    0.182974 O.3       1 <1>        -0.386388 
     56 O           6.653424  -22.543025    0.177735 O.3       1 <1>        -0.386033 
     57 O          11.419417  -21.995371   -0.673467 O.3       1 <1>        -0.384104 
     58 O          14.713210  -25.499269   -0.890670 O.3       1 <1>        -0.394374 
     59 H          22.718533  -33.001751    1.329642 H         1 <1>         0.027550 
     60 H          23.969640  -33.030969   -0.256577 H         1 <1>         0.027550 
     61 H          24.034813  -31.633037    2.139945 H         1 <1>         0.027098 
     62 H          25.046083  -31.585156    0.842620 H         1 <1>         0.027098 
     63 H          21.193880  -31.632201    0.687452 H         1 <1>         0.035135 
     64 H          20.770672  -33.135363   -1.229253 H         1 <1>         0.028121 
     65 H          22.173633  -32.466879   -2.000826 H         1 <1>         0.028121 
     66 H          22.440635  -30.310630    1.881314 H         1 <1>         0.027096 
     67 H          22.633249  -29.135603    0.243040 H         1 <1>         0.027096 
     68 H          20.599657  -29.572962    2.286292 H         1 <1>         0.027392 
     69 H          21.309527  -28.022263    1.842568 H         1 <1>         0.027392 
     70 H          17.799565  -30.476196    1.395933 H         1 <1>         0.031460 
     71 H          18.212664  -32.089530   -0.013830 H         1 <1>         0.031042 
     72 H          17.305306  -31.445966   -1.302340 H         1 <1>         0.031042 
     73 H          19.611259  -31.556872   -2.048179 H         1 <1>         0.057198 
     74 H          18.507972  -27.474221   -1.515457 H         1 <1>         0.027096 
     75 H          17.704493  -28.947584   -1.681471 H         1 <1>         0.027096 
     76 H          16.994757  -26.569731   -0.038951 H         1 <1>         0.026847 
     77 H          16.250924  -27.162827   -1.522903 H         1 <1>         0.026847 
     78 H          15.846689  -28.095325    1.386256 H         1 <1>         0.031291 
     79 H          14.268047  -27.767122   -1.907723 H         1 <1>         0.060308 
     80 H          12.925952  -30.120517   -0.598334 H         1 <1>         0.029048 
     81 H          13.207342  -29.813694   -2.288182 H         1 <1>         0.029048 
     82 H          14.993590  -31.322269   -1.194751 H         1 <1>         0.027149 
     83 H          15.669008  -29.947606   -2.011265 H         1 <1>         0.027149 
     84 H          23.708148  -33.916241   -2.444397 H         1 <1>         0.220226 
     85 H          20.550211  -33.896259    1.166118 H         1 <1>         0.023986 
     86 H          20.578304  -35.178859   -0.043619 H         1 <1>         0.023986 
     87 H          21.651531  -35.272631    1.376211 H         1 <1>         0.023986 
     88 H          14.268506  -30.683179    1.417890 H         1 <1>         0.023525 
     89 H          15.557295  -31.843317    1.116538 H         1 <1>         0.023525 
     90 H          15.769994  -30.570049    2.323356 H         1 <1>         0.023525 
     91 H          18.592888  -28.747901    2.646121 H         1 <1>         0.023542 
     92 H          19.278736  -27.288267    1.877126 H         1 <1>         0.023542 
     93 H          17.642015  -27.448275    2.108504 H         1 <1>         0.023542 
     94 H          21.743622  -27.440814   -0.494834 H         1 <1>         0.023829 
     95 H          20.199322  -26.943897   -0.290965 H         1 <1>         0.023829 
     96 H          20.611595  -28.102513   -1.664390 H         1 <1>         0.023829 
     97 H          24.451237  -31.234425   -1.526566 H         1 <1>         0.023525 
     98 H          24.685155  -29.610614   -0.892287 H         1 <1>         0.023525 
     99 H          23.288759  -29.990390   -1.905334 H         1 <1>         0.023525 
    100 H          13.459363  -25.555637    0.722502 H         1 <1>         0.056334 
    101 H          15.123711  -25.842783    1.125264 H         1 <1>         0.056334 
    102 H          12.813112  -29.046937    1.498499 H         1 <1>         0.023667 
    103 H          13.793166  -27.890850    2.439630 H         1 <1>         0.023667 
    104 H          12.374116  -27.378817    1.730196 H         1 <1>         0.023667 
    105 H           8.530943  -28.994002   -1.732608 H         1 <1>         0.065129 
    106 H           9.761656  -27.806604    0.847664 H         1 <1>         0.072940 
    107 H          11.605114  -26.601147   -0.021286 H         1 <1>         0.093773 
    108 H          10.731183  -25.453444   -2.201091 H         1 <1>         0.067477 
    109 H           8.276723  -26.198924   -2.120066 H         1 <1>         0.064781 
    110 H           8.348501  -31.371753    0.529929 H         1 <1>         0.220293 
    111 H           7.211060  -27.411312    0.166318 H         1 <1>         0.210020 
    112 H           8.833809  -27.758277   -3.825648 H         1 <1>         0.210005 
    113 H           8.297900  -22.974673    2.169217 H         1 <1>         0.072940 
    114 H          11.555771  -24.280588    0.170292 H         1 <1>         0.093767 
    115 H          10.382519  -23.204506   -1.984296 H         1 <1>         0.067096 
    116 H           8.545333  -21.800115   -1.608753 H         1 <1>         0.064771 
    117 H           7.765986  -23.992757   -0.691944 H         1 <1>         0.065129 
    118 H           6.121468  -24.516743    1.122033 H         1 <1>         0.220293 
    119 H           9.595253  -21.232747    0.994415 H         1 <1>         0.210005 
    120 H           6.717064  -21.712266    0.639641 H         1 <1>         0.210020 
    121 H          11.370013  -21.187257   -1.175937 H         1 <1>         0.210110 
    122 H          14.927326  -24.574400   -0.854536 H         1 <1>         0.209420 
@<TRIPOS>BOND
     1    1    2 1    
     2    6    1 1    
     3    1   24 1    
     4    1   25 1    
     5    3    2 1    
     6    2   59 1    
     7    2   60 1    
     8    4    3 1    
     9    3   61 1    
    10    3   62 1    
    11    5    4 1    
    12    7    4 1    
    13    4   30 1    
    14    5    6 1    
    15   10    5 1    
    16    5   63 1    
    17    6   64 1    
    18    6   65 1    
    19    8    7 1    
    20    7   66 1    
    21    7   67 1    
    22    9    8 1    
    23    8   68 1    
    24    8   69 1    
    25    9   10 1    
    26   11    9 1    
    27    9   29 1    
    28   14   10 2    
    29   12   11 1    
    30   15   11 1    
    31   11   28 1    
    32   12   13 1    
    33   18   12 1    
    34   12   70 1    
    35   13   14 1    
    36   13   71 1    
    37   13   72 1    
    38   14   73 1    
    39   16   15 1    
    40   15   74 1    
    41   15   75 1    
    42   17   16 1    
    43   16   76 1    
    44   16   77 1    
    45   17   18 1    
    46   19   17 1    
    47   17   78 1    
    48   22   18 1    
    49   18   27 1    
    50   20   19 1    
    51   19   31 1    
    52   19   32 1    
    53   20   21 1    
    54   33   20 1    
    55   20   79 1    
    56   21   22 1    
    57   21   80 1    
    58   21   81 1    
    59   22   82 1    
    60   22   83 1    
    61   25   23 1    
    62   23   84 1    
    63   24   85 1    
    64   24   86 1    
    65   24   87 1    
    66   25   26 2    
    67   27   88 1    
    68   27   89 1    
    69   27   90 1    
    70   28   91 1    
    71   28   92 1    
    72   28   93 1    
    73   29   94 1    
    74   29   95 1    
    75   29   96 1    
    76   30   97 1    
    77   30   98 1    
    78   30   99 1    
    79   31   58 1    
    80   31  100 1    
    81   31  101 1    
    82   32  102 1    
    83   32  103 1    
    84   32  104 1    
    85   37   33 1    
    86   34   35 1    
    87   39   34 1    
    88   34   43 1    
    89   34  105 1    
    90   36   35 1    
    91   35   40 1    
    92   35  106 1    
    93   37   36 1    
    94   38   37 1    
    95   37  107 1    
    96   38   39 1    
    97   54   38 1    
    98   38  108 1    
    99   39   44 1    
   100   39  109 1    
   101   40   41 1    
   102   40   42 2    
   103   41  110 1    
   104   43  111 1    
   105   44  112 1    
   106   46   45 1    
   107   45   50 1    
   108   45   51 1    
   109   45  113 1    
   110   47   46 1    
   111   47   48 1    
   112   47   54 1    
   113   47  114 1    
   114   48   49 1    
   115   48   57 1    
   116   48  115 1    
   117   49   50 1    
   118   49   55 1    
   119   49  116 1    
   120   50   56 1    
   121   50  117 1    
   122   51   52 1    
   123   51   53 2    
   124   52  118 1    
   125   55  119 1    
   126   56  120 1    
   127   57  121 1    
   128   58  122 1    
@<TRIPOS>SUBSTRUCTURE
     1 ****       45 TEMP              0 ****  ****    0 ROOT 
@<TRIPOS>NORMAL
@<TRIPOS>FF_PBC
FORCE_FIELD_SETUP_FEATURE Force Field Setup information
v1.0  0 0.000000 0.000000 0.000000 0.000000 0.000000 0.000000 NONE 0 0 0 0 1 0 0 0 0 0 0 0 0
