@<TRIPOS>MOLECULE
MOL004627
   23    22     1     1     0
SMALL
GASTEIGER


@<TRIPOS>ATOM
      1 C          -2.472705   -3.083542    0.000082 C.3       1 <1>        -0.065276 
      2 C          -1.124671   -2.316508   -0.000138 C.3       1 <1>        -0.055899 
      3 C          -1.347377   -0.779376    0.000106 C.3       1 <1>        -0.052845 
      4 C           0.004171   -0.013612   -0.000088 C.3       1 <1>        -0.044064 
      5 C          -0.212786    1.524569    0.000239 C.3       1 <1>         0.033189 
      6 C           1.071669    2.314416   -0.000085 C.2       1 <1>         0.261905 
      7 O           1.049455    3.535634   -0.000551 O.2       1 <1>        -0.264985 
      8 O           2.208003    1.600493    0.000185 O.3       1 <1>        -0.318522 
      9 C           3.403370    2.405229   -0.000079 C.3       1 <1>         0.045865 
     10 H          -2.290233   -4.169935   -0.000091 H         1 <1>         0.022978 
     11 H          -3.060722   -2.827693    0.895290 H         1 <1>         0.022978 
     12 H          -3.061133   -2.827476   -0.894792 H         1 <1>         0.022978 
     13 H          -0.546568   -2.605664   -0.893734 H         1 <1>         0.026265 
     14 H          -0.546161   -2.605887    0.893125 H         1 <1>         0.026265 
     15 H          -1.927800   -0.496280    0.893709 H         1 <1>         0.026531 
     16 H          -1.928182   -0.496055   -0.893174 H         1 <1>         0.026531 
     17 H           0.584130   -0.296273   -0.894378 H         1 <1>         0.027004 
     18 H           0.584542   -0.296583    0.893841 H         1 <1>         0.027004 
     19 H          -0.786917    1.816157    0.893526 H         1 <1>         0.036606 
     20 H          -0.787521    1.816418   -0.892575 H         1 <1>         0.036606 
     21 H           4.267592    1.724728    0.000119 H         1 <1>         0.052962 
     22 H           3.459868    3.038302   -0.900185 H         1 <1>         0.052962 
     23 H           3.459874    3.038837    0.899649 H         1 <1>         0.052962 
@<TRIPOS>BOND
     1    1    2 1    
     2    1   10 1    
     3    1   11 1    
     4    1   12 1    
     5    2    3 1    
     6    2   13 1    
     7    2   14 1    
     8    3    4 1    
     9    3   15 1    
    10    3   16 1    
    11    4    5 1    
    12    4   17 1    
    13    4   18 1    
    14    5    6 1    
    15    5   19 1    
    16    5   20 1    
    17    6    7 2    
    18    6    8 1    
    19    8    9 1    
    20    9   21 1    
    21    9   22 1    
    22    9   23 1    
@<TRIPOS>SUBSTRUCTURE
     1 ****        1 TEMP              0 ****  ****    0 ROOT 
@<TRIPOS>NORMAL
@<TRIPOS>FF_PBC
FORCE_FIELD_SETUP_FEATURE Force Field Setup information
v1.0  0 0.000000 0.000000 0.000000 0.000000 0.000000 0.000000 NONE 0 0 0 0 1 0 0 0 0 0 0 0 0
