@<TRIPOS>MOLECULE
MOL007540
   30    31     1     1     0
SMALL
GASTEIGER


@<TRIPOS>ATOM
      1 O          -1.151908    2.415175   -0.627938 O.3       1 <1>        -0.391218 
      2 C          -1.922173    0.288637    0.431600 C.3       1 <1>        -0.020637 
      3 C          -0.758834   -1.835103   -0.185847 C.3       1 <1>         0.059237 
      4 C           0.490880    0.069323    0.737040 C.3       1 <1>        -0.021828 
      5 C           0.595611    1.349874    1.631744 C.3       1 <1>        -0.058897 
      6 C           0.188671    0.319508   -0.770356 C.3       1 <1>         0.001708 
      7 C          -1.224167    0.985038   -0.770709 C.3       1 <1>         0.061529 
      8 C          -0.836782   -0.722930    0.900802 C.3       1 <1>        -0.006879 
      9 C          -0.000790   -1.119890   -1.339602 C.3       1 <1>        -0.018311 
     10 C           1.780323   -0.761727    1.050738 C.3       1 <1>        -0.058897 
     11 C           1.249029    1.137835   -1.549485 C.3       1 <1>        -0.056625 
     12 O          -0.072939   -2.994255    0.319089 O.3       1 <1>        -0.391474 
     13 H          -2.008667    2.828395   -0.583022 H         1 <1>         0.209800 
     14 H          -2.866877   -0.199005    0.142171 H         1 <1>         0.029386 
     15 H          -2.170992    0.997793    1.234974 H         1 <1>         0.029386 
     16 H          -1.767854   -2.162062   -0.495442 H         1 <1>         0.059620 
     17 H           0.592859    1.049282    2.690489 H         1 <1>         0.023526 
     18 H          -0.197686    2.093533    1.512774 H         1 <1>         0.023526 
     19 H           1.541222    1.874808    1.429800 H         1 <1>         0.023526 
     20 H          -1.751823    0.786799   -1.720824 H         1 <1>         0.059880 
     21 H          -1.021778   -1.123623    1.910275 H         1 <1>         0.033181 
     22 H          -0.569595   -1.134399   -2.282916 H         1 <1>         0.029638 
     23 H           0.963633   -1.601678   -1.555770 H         1 <1>         0.029638 
     24 H           2.676910   -0.157098    0.848080 H         1 <1>         0.023526 
     25 H           1.907471   -1.696006    0.496298 H         1 <1>         0.023526 
     26 H           1.783599   -1.027932    2.118649 H         1 <1>         0.023526 
     27 H           2.221046    0.623321   -1.538958 H         1 <1>         0.023605 
     28 H           0.924388    1.257949   -2.593965 H         1 <1>         0.023605 
     29 H           1.374656    2.135128   -1.103178 H         1 <1>         0.023605 
     30 H           0.032763   -3.676888   -0.336411 H         1 <1>         0.209789 
@<TRIPOS>BOND
     1    7    1 1    
     2    1   13 1    
     3    2    7 1    
     4    8    2 1    
     5    2   14 1    
     6    2   15 1    
     7    8    3 1    
     8    3    9 1    
     9    3   12 1    
    10    3   16 1    
    11    4    5 1    
    12    4    6 1    
    13    4    8 1    
    14    4   10 1    
    15    5   17 1    
    16    5   18 1    
    17    5   19 1    
    18    6    7 1    
    19    6    9 1    
    20    6   11 1    
    21    7   20 1    
    22    8   21 1    
    23    9   22 1    
    24    9   23 1    
    25   10   24 1    
    26   10   25 1    
    27   10   26 1    
    28   11   27 1    
    29   11   28 1    
    30   11   29 1    
    31   12   30 1    
@<TRIPOS>SUBSTRUCTURE
     1 ****        4 TEMP              0 ****  ****    0 ROOT 
@<TRIPOS>NORMAL
@<TRIPOS>FF_PBC
FORCE_FIELD_SETUP_FEATURE Force Field Setup information
v1.0  0 0.000000 0.000000 0.000000 0.000000 0.000000 0.000000 NONE 0 0 0 0 1 0 0 0 0 0 0 0 0
