@<TRIPOS>MOLECULE
MOL000615
   39    40     1     1     0
SMALL
GASTEIGER


@<TRIPOS>ATOM
      1 C          -0.462967   -0.432551    0.059385 C.3       1 <1>         0.001716 
      2 C          -0.370029    1.044085    0.382833 C.2       1 <1>        -0.063169 
      3 C           0.836673   -1.089335   -0.504647 C.3       1 <1>        -0.028439 
      4 C          -1.655018   -0.527597   -0.863412 C.2       1 <1>        -0.077643 
      5 C           0.705235    1.791777    0.077614 C.2       1 <1>        -0.072787 
      6 C          -1.604253    1.630980    1.042271 C.3       1 <1>        -0.027255 
      7 C           1.461752   -0.053078   -1.476216 C.3       1 <1>        -0.045461 
      8 C           1.812998   -1.600633    0.616183 C.3       1 <1>        -0.043054 
      9 C          -2.808753    0.038497   -0.483350 C.2       1 <1>        -0.075659 
     10 C           1.866493    1.227435   -0.705443 C.3       1 <1>        -0.031447 
     11 C           0.847671    3.248956    0.465460 C.3       1 <1>        -0.043515 
     12 C          -2.872300    0.748481    0.849939 C.3       1 <1>        -0.028274 
     13 C           1.265769   -2.869651    1.344839 C.3       1 <1>        -0.062386 
     14 C           3.221977   -1.968637    0.058175 C.3       1 <1>        -0.062386 
     15 C          -4.070260    0.004387   -1.312615 C.3       1 <1>        -0.043760 
     16 H          -0.753097   -0.951352    0.980136 H         1 <1>         0.039095 
     17 H           0.564287   -1.978909   -1.097301 H         1 <1>         0.031207 
     18 H          -1.581150   -1.047499   -1.818319 H         1 <1>         0.057759 
     19 H          -1.424876    1.803263    2.115536 H         1 <1>         0.031329 
     20 H          -1.817954    2.597144    0.556591 H         1 <1>         0.031329 
     21 H           0.707648    0.223915   -2.232493 H         1 <1>         0.027131 
     22 H           2.319255   -0.467694   -2.028195 H         1 <1>         0.027131 
     23 H           1.936168   -0.807736    1.373216 H         1 <1>         0.029841 
     24 H           2.703251    1.050810   -0.014801 H         1 <1>         0.031007 
     25 H           2.199174    1.971603   -1.447936 H         1 <1>         0.031007 
     26 H           0.231934    3.536085    1.329264 H         1 <1>         0.027444 
     27 H           1.893367    3.462807    0.734217 H         1 <1>         0.027444 
     28 H           0.571866    3.878318   -0.393751 H         1 <1>         0.027444 
     29 H          -3.779299    1.368835    0.942876 H         1 <1>         0.031294 
     30 H          -2.925056   -0.026202    1.631623 H         1 <1>         0.031294 
     31 H           1.980244   -3.211232    2.110037 H         1 <1>         0.023242 
     32 H           0.313649   -2.703267    1.864600 H         1 <1>         0.023242 
     33 H           1.123192   -3.689168    0.623802 H         1 <1>         0.023242 
     34 H           3.848867   -2.421163    0.842043 H         1 <1>         0.023242 
     35 H           3.771795   -1.090853   -0.308032 H         1 <1>         0.023242 
     36 H           3.124615   -2.692880   -0.765139 H         1 <1>         0.023242 
     37 H          -4.876540   -0.470028   -0.733350 H         1 <1>         0.027436 
     38 H          -4.370010    1.031929   -1.567619 H         1 <1>         0.027436 
     39 H          -3.936318   -0.559748   -2.247917 H         1 <1>         0.027436 
@<TRIPOS>BOND
     1    1    2 1    
     2    1    3 1    
     3    1    4 1    
     4    1   16 1    
     5    2    5 2    
     6    2    6 1    
     7    3    7 1    
     8    3    8 1    
     9    3   17 1    
    10    4    9 2    
    11    4   18 1    
    12    5   10 1    
    13    5   11 1    
    14    6   12 1    
    15    6   19 1    
    16    6   20 1    
    17    7   10 1    
    18    7   21 1    
    19    7   22 1    
    20    8   13 1    
    21    8   14 1    
    22    8   23 1    
    23    9   12 1    
    24    9   15 1    
    25   10   24 1    
    26   10   25 1    
    27   11   26 1    
    28   11   27 1    
    29   11   28 1    
    30   12   29 1    
    31   12   30 1    
    32   13   31 1    
    33   13   32 1    
    34   13   33 1    
    35   14   34 1    
    36   14   35 1    
    37   14   36 1    
    38   15   37 1    
    39   15   38 1    
    40   15   39 1    
@<TRIPOS>SUBSTRUCTURE
     1 ****        1 TEMP              0 ****  ****    0 ROOT 
@<TRIPOS>NORMAL
@<TRIPOS>FF_PBC
FORCE_FIELD_SETUP_FEATURE Force Field Setup information
v1.0  0 0.000000 0.000000 0.000000 0.000000 0.000000 0.000000 NONE 0 0 0 0 1 0 0 0 0 0 0 0 0
