@<TRIPOS>MOLECULE
MOL004823
   48    51     1     1     0
SMALL
GASTEIGER


@<TRIPOS>ATOM
      1 C          -2.435496    1.414766    0.040713 C.ar      1 <1>        -0.044513 
      2 C          -1.765593    2.445768   -0.515100 C.ar      1 <1>        -0.058074 
      3 C          -0.290392    2.438946   -0.599902 C.ar      1 <1>        -0.053350 
      4 C           0.394311    1.399212   -0.110749 C.ar      1 <1>         0.012536 
      5 C          -0.330283    0.243337    0.477766 C.ar      1 <1>         0.085561 
      6 C          -1.692849    0.224424    0.554967 C.ar      1 <1>        -0.010418 
      7 C           1.924122    1.420621   -0.161793 C.3       1 <1>         0.101498 
      8 C           2.565253    0.207603    0.563963 C.3       1 <1>         0.041400 
      9 C           1.689661   -1.047801    0.354433 C.3       1 <1>         0.063823 
     10 O           0.402863   -0.847991    0.959174 O.3       1 <1>        -0.343351 
     11 O           2.431620    1.411117   -1.516925 O.3       1 <1>        -0.335825 
     12 C           3.666988    0.792038   -1.366841 C.ar      1 <1>         0.080841 
     13 C           3.842034    0.112654   -0.252861 C.ar      1 <1>        -0.009278 
     14 C           4.738941    0.867701   -2.385126 C.ar      1 <1>        -0.028457 
     15 C           5.908125    0.230682   -2.148731 C.ar      1 <1>        -0.047993 
     16 C           6.098428   -0.520348   -0.875407 C.ar      1 <1>        -0.058412 
     17 C           5.113361   -0.583767    0.042800 C.ar      1 <1>        -0.055441 
     18 C          -3.957252    1.518471    0.131225 C.3       1 <1>        -0.039361 
     19 C          -2.347886   -1.047577    1.163416 C.3       1 <1>        -0.006543 
     20 C           7.030942    0.283060   -3.193295 C.3       1 <1>        -0.039629 
     21 C          -3.890901   -1.102076    1.362303 C.2       1 <1>        -0.080890 
     22 C          -5.106122   -1.658997    1.648647 C.2       1 <1>        -0.079307 
     23 H          -2.292404    3.310608   -0.904552 H         1 <1>         0.062040 
     24 H           0.228241    3.280728   -1.050162 H         1 <1>         0.062199 
     25 H           2.286733    2.346428    0.318372 H         1 <1>         0.065909 
     26 H           2.745960    0.399316    1.634774 H         1 <1>         0.040099 
     27 H           2.175330   -1.916904    0.824358 H         1 <1>         0.057187 
     28 H           1.558171   -1.259681   -0.718846 H         1 <1>         0.057187 
     29 H           4.575730    1.424503   -3.301411 H         1 <1>         0.064601 
     30 H           7.040536   -1.023522   -0.682926 H         1 <1>         0.062030 
     31 H           5.239356   -1.126441    0.973937 H         1 <1>         0.062127 
     32 H          -4.369315    2.435690   -0.314316 H         1 <1>         0.027763 
     33 H          -4.418555    0.664560   -0.383543 H         1 <1>         0.027763 
     34 H          -4.195021    1.531462    1.204024 H         1 <1>         0.027763 
     35 H          -1.922284   -1.795157    0.447733 H         1 <1>         0.035648 
     36 H          -1.808163   -1.117845    2.135495 H         1 <1>         0.035648 
     37 H           7.949557   -0.194992   -2.820394 H         1 <1>         0.027754 
     38 H           6.703448   -0.243545   -4.102855 H         1 <1>         0.027754 
     39 H           7.257783    1.330642   -3.444670 H         1 <1>         0.027754 
     40 H          -3.596428   -2.114247    1.603284 H         1 <1>         0.057472 
     41 C          -5.522240   -3.094539    2.050797 C.3       1 <1>        -0.044040 
     42 C          -6.311394   -0.741773    1.561559 C.3       1 <1>        -0.044040 
     43 H          -6.097127    0.300031    1.307225 H         1 <1>         0.027427 
     44 H          -7.000147   -1.130502    0.795559 H         1 <1>         0.027427 
     45 H          -6.834316   -0.732002    2.530861 H         1 <1>         0.027427 
     46 H          -6.594655   -3.173957    2.290506 H         1 <1>         0.027427 
     47 H          -5.320810   -3.778282    1.211086 H         1 <1>         0.027427 
     48 H          -4.964835   -3.438756    2.937147 H         1 <1>         0.027427 
@<TRIPOS>BOND
     1    1    2 2    
     2    1    6 1    
     3    1   18 1    
     4    2    3 1    
     5    2   23 1    
     6    3    4 2    
     7    3   24 1    
     8    4    5 1    
     9    4    7 1    
    10    5    6 2    
    11    5   10 1    
    12    6   19 1    
    13    7    8 1    
    14    7   11 1    
    15    7   25 1    
    16    8    9 1    
    17    8   13 1    
    18    8   26 1    
    19    9   10 1    
    20    9   27 1    
    21    9   28 1    
    22   11   12 1    
    23   12   13 2    
    24   12   14 1    
    25   13   17 1    
    26   14   15 2    
    27   14   29 1    
    28   15   16 1    
    29   15   20 1    
    30   16   17 2    
    31   16   30 1    
    32   17   31 1    
    33   18   32 1    
    34   18   33 1    
    35   18   34 1    
    36   19   21 1    
    37   19   35 1    
    38   19   36 1    
    39   20   37 1    
    40   20   38 1    
    41   20   39 1    
    42   21   22 2    
    43   21   40 1    
    44   22   41 1    
    45   22   42 1    
    46   41   46 1    
    47   41   47 1    
    48   41   48 1    
    49   42   43 1    
    50   42   44 1    
    51   42   45 1    
@<TRIPOS>SUBSTRUCTURE
     1 ****        1 TEMP              0 ****  ****    0 ROOT 
@<TRIPOS>NORMAL
@<TRIPOS>FF_PBC
FORCE_FIELD_SETUP_FEATURE Force Field Setup information
v1.0  0 0.000000 0.000000 0.000000 0.000000 0.000000 0.000000 NONE 0 0 0 0 1 0 0 0 0 0 0 0 0
