@<TRIPOS>MOLECULE
MOL007553
   29    30     1     1     0
SMALL
GASTEIGER


@<TRIPOS>ATOM
      1 C          -0.818949    1.083293   -0.077494 C.3       1 <1>        -0.032929 
      2 C           0.739183    0.951321   -0.094217 C.3       1 <1>        -0.005561 
      3 C           0.935971   -0.597736   -0.142343 C.3       1 <1>         0.065952 
      4 C          -0.527194   -1.131235   -0.049789 C.3       1 <1>        -0.005297 
      5 C          -1.098341   -0.830000    1.368123 C.3       1 <1>        -0.044978 
      6 C          -1.420977    0.686595    1.296808 C.3       1 <1>        -0.049050 
      7 C          -1.285041   -0.120070   -0.932321 C.3       1 <1>        -0.041842 
      8 O           1.590903   -0.982539   -1.367714 O.3       1 <1>        -0.390709 
      9 C          -0.716128   -2.611466   -0.473680 C.3       1 <1>        -0.057182 
     10 C           1.315349    1.662172   -1.359945 C.3       1 <1>        -0.057189 
     11 C           1.438056    1.587026    1.147269 C.3       1 <1>        -0.057189 
     12 H          -1.183081    2.063976   -0.425366 H         1 <1>         0.030693 
     13 H           1.547197   -0.963900    0.700677 H         1 <1>         0.060398 
     14 H          -2.020659   -1.402049    1.562473 H         1 <1>         0.027141 
     15 H          -0.373964   -1.073755    2.161141 H         1 <1>         0.027141 
     16 H          -1.048323    1.270886    2.150250 H         1 <1>         0.026830 
     17 H          -2.512888    0.845147    1.260186 H         1 <1>         0.026830 
     18 H          -2.376832   -0.275236   -0.929096 H         1 <1>         0.027416 
     19 H          -0.938040   -0.118304   -1.976152 H         1 <1>         0.027416 
     20 H           1.779797   -1.912941   -1.427809 H         1 <1>         0.209824 
     21 H          -1.767345   -2.913338   -0.352504 H         1 <1>         0.023587 
     22 H          -0.448366   -2.755925   -1.530554 H         1 <1>         0.023587 
     23 H          -0.085794   -3.259920    0.153107 H         1 <1>         0.023587 
     24 H           2.401662    1.498015   -1.430251 H         1 <1>         0.023587 
     25 H           1.136444    2.746533   -1.297339 H         1 <1>         0.023587 
     26 H           0.864065    1.303423   -2.295042 H         1 <1>         0.023587 
     27 H           2.530440    1.580151    1.012089 H         1 <1>         0.023587 
     28 H           1.109944    2.630363    1.271368 H         1 <1>         0.023587 
     29 H           1.233210    1.039817    2.078227 H         1 <1>         0.023587 
@<TRIPOS>BOND
     1    1    2 1    
     2    1    6 1    
     3    1    7 1    
     4    1   12 1    
     5    2    3 1    
     6    2   10 1    
     7    2   11 1    
     8    3    4 1    
     9    3    8 1    
    10    3   13 1    
    11    4    5 1    
    12    4    7 1    
    13    4    9 1    
    14    5    6 1    
    15    5   14 1    
    16    5   15 1    
    17    6   16 1    
    18    6   17 1    
    19    7   18 1    
    20    7   19 1    
    21    8   20 1    
    22    9   21 1    
    23    9   22 1    
    24    9   23 1    
    25   10   24 1    
    26   10   25 1    
    27   10   26 1    
    28   11   27 1    
    29   11   28 1    
    30   11   29 1    
@<TRIPOS>SUBSTRUCTURE
     1 ****        1 TEMP              0 ****  ****    0 ROOT 
@<TRIPOS>NORMAL
@<TRIPOS>FF_PBC
FORCE_FIELD_SETUP_FEATURE Force Field Setup information
v1.0  0 0.000000 0.000000 0.000000 0.000000 0.000000 0.000000 NONE 0 0 0 0 1 0 0 0 0 0 0 0 0
