@<TRIPOS>MOLECULE
MOL004559
   51    53     1     1     0
SMALL
GASTEIGER


@<TRIPOS>ATOM
      1 O           3.054189    2.973629   -0.242612 O.3       1 <1>        -0.388295 
      2 O          -0.449796    0.764487    0.915069 O.3       1 <1>        -0.319340 
      3 O           0.892054   -0.997599    1.600914 O.3       1 <1>        -0.321880 
      4 O           4.681197    0.250399   -1.646683 O.3       1 <1>        -0.391077 
      5 O          -1.775018   -0.570378   -0.444942 O.3       1 <1>        -0.340431 
      6 O          -2.740863    1.437739    2.554697 O.3       1 <1>        -0.384103 
      7 O          -5.291962    0.982854    1.224292 O.3       1 <1>        -0.386401 
      8 O          -5.421524   -1.328957   -0.549964 O.3       1 <1>        -0.386488 
      9 O           5.555761   -1.429384    0.574264 O.3       1 <1>        -0.327671 
     10 O           4.431571   -3.088012    1.523487 O.2       1 <1>        -0.259700 
     11 O          -1.763401   -2.777676   -2.257288 O.3       1 <1>        -0.392366 
     12 C           1.939679    1.000058    0.641638 C.3       1 <1>         0.048583 
     13 C           1.983062    2.047086   -0.503962 C.3       1 <1>         0.073734 
     14 C           3.217809    0.184019    0.366813 C.3       1 <1>         0.027825 
     15 C           3.327237    0.109505   -1.183948 C.3       1 <1>         0.065378 
     16 C           2.404052    1.226785   -1.747427 C.3       1 <1>         0.002884 
     17 C           0.742626    0.025883    0.600684 C.3       1 <1>         0.173313 
     18 C           3.180209   -1.169269    1.032969 C.2       1 <1>         0.052538 
     19 C           0.667719    2.840141   -0.729836 C.3       1 <1>        -0.035545 
     20 C          -1.641029   -0.039846    0.888728 C.3       1 <1>         0.190790 
     21 C           2.065794   -1.652199    1.606743 C.2       1 <1>         0.052329 
     22 C          -2.850607    0.869195    1.232912 C.3       1 <1>         0.134212 
     23 C          -4.178422    0.085840    1.051659 C.3       1 <1>         0.114063 
     24 C          -4.224573   -0.548793   -0.363931 C.3       1 <1>         0.111896 
     25 C          -2.946660   -1.391317   -0.615458 C.3       1 <1>         0.113007 
     26 C           4.430275   -1.957960    1.059146 C.2       1 <1>         0.289477 
     27 C          -2.924022   -1.950628   -2.061181 C.3       1 <1>         0.073015 
     28 H           1.951978    1.472153    1.637985 H         1 <1>         0.038456 
     29 H           4.070147    0.756380    0.769875 H         1 <1>         0.038161 
     30 H           2.979542   -0.874997   -1.541515 H         1 <1>         0.060018 
     31 H           2.915227    1.863565   -2.486625 H         1 <1>         0.031802 
     32 H           1.522803    0.787141   -2.241664 H         1 <1>         0.031802 
     33 H           0.661263   -0.455152   -0.386787 H         1 <1>         0.091841 
     34 H           0.840831    3.617027   -1.489768 H         1 <1>         0.025733 
     35 H          -0.146889    2.191097   -1.083446 H         1 <1>         0.025733 
     36 H           0.353775    3.325286    0.206661 H         1 <1>         0.025733 
     37 H           2.903634    3.515313    0.525550 H         1 <1>         0.210163 
     38 H          -1.567729   -0.845833    1.638497 H         1 <1>         0.093840 
     39 H           2.069468   -2.609345    2.128827 H         1 <1>         0.089058 
     40 H           5.069821    1.086610   -1.408288 H         1 <1>         0.209803 
     41 H          -2.844915    1.710147    0.521228 H         1 <1>         0.067096 
     42 H          -4.221604   -0.711795    1.812850 H         1 <1>         0.064758 
     43 H          -4.253970    0.271925   -1.099039 H         1 <1>         0.064673 
     44 H          -2.914606   -2.252073    0.073693 H         1 <1>         0.064668 
     45 H          -2.925617   -1.120136   -2.787147 H         1 <1>         0.058370 
     46 H          -3.815059   -2.572148   -2.243754 H         1 <1>         0.058370 
     47 H          -2.729587    0.787491    3.248681 H         1 <1>         0.210110 
     48 H          -6.131941    0.550131    1.100574 H         1 <1>         0.210005 
     49 H          -5.493866   -2.066088    0.048251 H         1 <1>         0.210004 
     50 H           6.294418   -2.026061    0.628540 H         1 <1>         0.220546 
     51 H          -0.954980   -2.297642   -2.100862 H         1 <1>         0.209508 
@<TRIPOS>BOND
     1   13    1 1    
     2    1   37 1    
     3    2   17 1    
     4   20    2 1    
     5   17    3 1    
     6    3   21 1    
     7   15    4 1    
     8    4   40 1    
     9    5   20 1    
    10   25    5 1    
    11   22    6 1    
    12    6   47 1    
    13   23    7 1    
    14    7   48 1    
    15   24    8 1    
    16    8   49 1    
    17   26    9 1    
    18    9   50 1    
    19   26   10 2    
    20   27   11 1    
    21   11   51 1    
    22   12   13 1    
    23   12   14 1    
    24   17   12 1    
    25   12   28 1    
    26   13   16 1    
    27   13   19 1    
    28   14   15 1    
    29   14   18 1    
    30   14   29 1    
    31   15   16 1    
    32   15   30 1    
    33   16   31 1    
    34   16   32 1    
    35   17   33 1    
    36   21   18 2    
    37   18   26 1    
    38   19   34 1    
    39   19   35 1    
    40   19   36 1    
    41   20   22 1    
    42   20   38 1    
    43   21   39 1    
    44   23   22 1    
    45   22   41 1    
    46   24   23 1    
    47   23   42 1    
    48   25   24 1    
    49   24   43 1    
    50   25   27 1    
    51   25   44 1    
    52   27   45 1    
    53   27   46 1    
@<TRIPOS>SUBSTRUCTURE
     1 ****        1 TEMP              0 ****  ****    0 ROOT 
@<TRIPOS>NORMAL
@<TRIPOS>FF_PBC
FORCE_FIELD_SETUP_FEATURE Force Field Setup information
v1.0  0 0.000000 0.000000 0.000000 0.000000 0.000000 0.000000 NONE 0 0 0 0 1 0 0 0 0 0 0 0 0
