@<TRIPOS>MOLECULE
MOL001732
   14    13     1     1     0
SMALL
GASTEIGER


@<TRIPOS>ATOM
      1 O          -0.494108   -1.651843    0.852131 O.3       1 <1>        -0.387251 
      2 O           1.894873   -0.459669   -0.308274 O.3       1 <1>        -0.392388 
      3 O          -0.846216    1.552177   -0.996307 O.3       1 <1>        -0.392388 
      4 C          -0.382780   -0.236703    0.596619 C.3       1 <1>         0.101162 
      5 C           1.107688    0.179854    0.716461 C.3       1 <1>         0.072285 
      6 C          -0.929889    0.126058   -0.808700 C.3       1 <1>         0.072285 
      7 H          -0.962329    0.319317    1.355804 H         1 <1>         0.063906 
      8 H           1.471675   -0.118247    1.714341 H         1 <1>         0.058349 
      9 H           1.190098    1.276419    0.623336 H         1 <1>         0.058349 
     10 H          -1.981022   -0.199917   -0.884792 H         1 <1>         0.058349 
     11 H          -0.341080   -0.409823   -1.572050 H         1 <1>         0.058349 
     12 H          -1.389636   -1.973565    0.825220 H         1 <1>         0.209975 
     13 H           2.820316   -0.238744   -0.262699 H         1 <1>         0.209508 
     14 H          -1.157892    1.834485   -1.851389 H         1 <1>         0.209508 
@<TRIPOS>BOND
     1    4    1 1    
     2    1   12 1    
     3    5    2 1    
     4    2   13 1    
     5    6    3 1    
     6    3   14 1    
     7    4    5 1    
     8    4    6 1    
     9    4    7 1    
    10    5    8 1    
    11    5    9 1    
    12    6   10 1    
    13    6   11 1    
@<TRIPOS>SUBSTRUCTURE
     1 ****        1 TEMP              0 ****  ****    0 ROOT 
@<TRIPOS>NORMAL
@<TRIPOS>FF_PBC
FORCE_FIELD_SETUP_FEATURE Force Field Setup information
v1.0  0 0.000000 0.000000 0.000000 0.000000 0.000000 0.000000 NONE 0 0 0 0 1 0 0 0 0 0 0 0 0
