@<TRIPOS>MOLECULE
MOL000117
   24    24     1     1     0
SMALL
GASTEIGER


@<TRIPOS>ATOM
      1 C           1.649130    1.689536   -0.447688 C.ar      1 <1>        -0.050429 
      2 C           2.187126    0.354056   -0.091026 C.ar      1 <1>        -0.058572 
      3 C          -0.158670   -0.524881    0.139613 C.ar      1 <1>        -0.044775 
      4 C           0.253233    1.878130   -0.500063 C.ar      1 <1>        -0.058572 
      5 C           1.313238   -0.714897    0.192498 C.ar      1 <1>        -0.058076 
      6 C          -0.668626    0.756606   -0.202603 C.ar      1 <1>        -0.058076 
      7 C           2.586175    2.860667   -0.758352 C.3       1 <1>        -0.039709 
      8 C          -1.103830   -1.699115    0.451062 C.3       1 <1>        -0.021514 
      9 C          -1.974041   -2.045034   -0.786348 C.3       1 <1>        -0.058650 
     10 C          -1.977805   -1.384157    1.694055 C.3       1 <1>        -0.058650 
     11 H           3.259490    0.195291   -0.047085 H         1 <1>         0.062028 
     12 H          -0.152994    2.850176   -0.759683 H         1 <1>         0.062028 
     13 H           1.728265   -1.683382    0.451187 H         1 <1>         0.062046 
     14 H          -1.736953    0.932150   -0.251003 H         1 <1>         0.062046 
     15 H           3.642522    2.564247   -0.677520 H         1 <1>         0.027753 
     16 H           2.395452    3.217047   -1.781756 H         1 <1>         0.027753 
     17 H           2.392516    3.679098   -0.048829 H         1 <1>         0.027753 
     18 H          -0.498330   -2.590590    0.689498 H         1 <1>         0.034345 
     19 H          -1.326491   -2.253670   -1.652431 H         1 <1>         0.023545 
     20 H          -2.586778   -2.937543   -0.584493 H         1 <1>         0.023545 
     21 H          -2.647722   -1.214858   -1.044665 H         1 <1>         0.023545 
     22 H          -1.332872   -1.133735    2.550974 H         1 <1>         0.023545 
     23 H          -2.590655   -2.259238    1.961291 H         1 <1>         0.023545 
     24 H          -2.651579   -0.536004    1.503167 H         1 <1>         0.023545 
@<TRIPOS>BOND
     1    1    2 1    
     2    1    4 2    
     3    1    7 1    
     4    2    5 2    
     5    2   11 1    
     6    5    3 1    
     7    3    6 2    
     8    3    8 1    
     9    4    6 1    
    10    4   12 1    
    11    5   13 1    
    12    6   14 1    
    13    7   15 1    
    14    7   16 1    
    15    7   17 1    
    16    8    9 1    
    17    8   10 1    
    18    8   18 1    
    19    9   19 1    
    20    9   20 1    
    21    9   21 1    
    22   10   22 1    
    23   10   23 1    
    24   10   24 1    
@<TRIPOS>SUBSTRUCTURE
     1 ****        1 TEMP              0 ****  ****    0 ROOT 
@<TRIPOS>NORMAL
@<TRIPOS>FF_PBC
FORCE_FIELD_SETUP_FEATURE Force Field Setup information
v1.0  0 0.000000 0.000000 0.000000 0.000000 0.000000 0.000000 NONE 0 0 0 0 1 0 0 0 0 0 0 0 0
