@<TRIPOS>MOLECULE
MOL004915
   43    45     1     1     0
SMALL
GASTEIGER


@<TRIPOS>ATOM
      1 O           3.567081    1.214517   -1.588756 O.3       1 <1>        -0.315352 
      2 O          -0.496756   -0.406199   -1.111998 O.3       1 <1>        -0.358859 
      3 O          -3.851791    2.826908    0.537818 O.3       1 <1>        -0.359468 
      4 O           1.760750    0.160006    1.850009 O.2       1 <1>        -0.286477 
      5 O           7.815414   -0.907013   -0.374618 O.3       1 <1>        -0.359749 
      6 C           0.207093    1.634236   -0.040774 C.ar      1 <1>         0.017862 
      7 C          -2.242078    1.211608   -0.323866 C.ar      1 <1>         0.016309 
      8 C          -0.822442    0.802133   -0.497199 C.ar      1 <1>         0.086342 
      9 C           1.646579    1.222062   -0.239787 C.2       1 <1>         0.055027 
     10 C          -3.369734    0.321398   -0.866366 C.3       1 <1>        -0.004343 
     11 C          -2.533664    2.422007    0.335507 C.ar      1 <1>         0.078519 
     12 C           3.760678    0.076825    0.553816 C.ar      1 <1>         0.052905 
     13 C          -0.103545    2.912706    0.637680 C.ar      1 <1>        -0.048941 
     14 C           2.327726    0.463036    0.812688 C.2       1 <1>         0.198173 
     15 C          -1.435908    3.290776    0.819912 C.ar      1 <1>        -0.030923 
     16 C           4.317294    0.484338   -0.659072 C.ar      1 <1>         0.095569 
     17 C           2.285778    1.552185   -1.368654 C.2       1 <1>         0.058335 
     18 C          -3.759167   -0.689278    0.186064 C.2       1 <1>        -0.080815 
     19 C           4.560366   -0.701053    1.529933 C.ar      1 <1>        -0.045981 
     20 C          -4.269724   -1.905029   -0.068930 C.2       1 <1>        -0.079306 
     21 C           5.723862    0.137317   -0.966496 C.ar      1 <1>        -0.000723 
     22 C           5.889427   -1.029163    1.231442 C.ar      1 <1>        -0.031105 
     23 C           6.492226   -0.595635   -0.056008 C.ar      1 <1>         0.075081 
     24 C          -4.596708   -2.871642    1.048286 C.3       1 <1>        -0.044040 
     25 C          -4.555606   -2.404362   -1.468169 C.3       1 <1>        -0.044040 
     26 H          -4.248956    0.928111   -1.129534 H         1 <1>         0.035721 
     27 H          -3.010747   -0.156149   -1.790033 H         1 <1>         0.035721 
     28 H           0.702183    3.548234    0.990783 H         1 <1>         0.062523 
     29 H          -1.676618    4.224814    1.316667 H         1 <1>         0.064349 
     30 H          -3.606788   -0.388485    1.223622 H         1 <1>         0.057473 
     31 H           1.767598    2.115096   -2.144901 H         1 <1>         0.089750 
     32 H           4.115171   -1.014106    2.469111 H         1 <1>         0.062621 
     33 H           6.160353    0.455636   -1.906512 H         1 <1>         0.066945 
     34 H           6.473618   -1.600863    1.944511 H         1 <1>         0.064341 
     35 H          -0.983672   -1.131297   -0.735890 H         1 <1>         0.217351 
     36 H          -4.286543   -2.506760    2.039114 H         1 <1>         0.027427 
     37 H          -5.682451   -3.049056    1.073725 H         1 <1>         0.027427 
     38 H          -4.085634   -3.828302    0.862289 H         1 <1>         0.027427 
     39 H          -4.862278   -1.594004   -2.145290 H         1 <1>         0.027427 
     40 H          -3.651222   -2.886872   -1.867520 H         1 <1>         0.027427 
     41 H          -5.370780   -3.144056   -1.459274 H         1 <1>         0.027427 
     42 H          -4.344025    2.182281    1.033717 H         1 <1>         0.217326 
     43 H           8.273141   -1.377807    0.312554 H         1 <1>         0.217315 
@<TRIPOS>BOND
     1   16    1 1    
     2    1   17 1    
     3    8    2 1    
     4    2   35 1    
     5   11    3 1    
     6    3   42 1    
     7   14    4 2    
     8   23    5 1    
     9    5   43 1    
    10    6    8 2    
    11    9    6 1    
    12    6   13 1    
    13    8    7 1    
    14    7   10 1    
    15    7   11 2    
    16   14    9 1    
    17   17    9 2    
    18   10   18 1    
    19   10   26 1    
    20   10   27 1    
    21   15   11 1    
    22   12   14 1    
    23   16   12 2    
    24   12   19 1    
    25   13   15 2    
    26   13   28 1    
    27   15   29 1    
    28   21   16 1    
    29   17   31 1    
    30   18   20 2    
    31   18   30 1    
    32   19   22 2    
    33   19   32 1    
    34   20   24 1    
    35   20   25 1    
    36   21   23 2    
    37   21   33 1    
    38   22   23 1    
    39   22   34 1    
    40   24   36 1    
    41   24   37 1    
    42   24   38 1    
    43   25   39 1    
    44   25   40 1    
    45   25   41 1    
@<TRIPOS>SUBSTRUCTURE
     1 ****        2 TEMP              0 ****  ****    0 ROOT 
@<TRIPOS>NORMAL
@<TRIPOS>FF_PBC
FORCE_FIELD_SETUP_FEATURE Force Field Setup information
v1.0  0 0.000000 0.000000 0.000000 0.000000 0.000000 0.000000 NONE 0 0 0 0 1 0 0 0 0 0 0 0 0
