@<TRIPOS>MOLECULE
MOL004930
   45    47     1     1     0
SMALL
GASTEIGER


@<TRIPOS>ATOM
      1 C           0.276112    2.281993    0.083773 C.2       1 <1>         0.123710 
      2 C           1.148840    1.034537    0.062241 C.ar      1 <1>         0.010996 
      3 O          -1.028742    2.024093    0.300395 O.3       1 <1>        -0.305130 
      4 C           0.711346    3.544337   -0.108944 C.2       1 <1>         0.151807 
      5 C           0.447321   -0.279057    0.027166 C.ar      1 <1>        -0.045946 
      6 C           2.558168    1.012073    0.077304 C.ar      1 <1>        -0.019670 
      7 C          -2.040280    2.981237    0.238310 C.ar      1 <1>         0.099001 
      8 C          -0.230394    4.685582   -0.061942 C.2       1 <1>         0.223066 
      9 O           2.004142    3.784813   -0.362700 O.3       1 <1>        -0.354461 
     10 C           1.133803   -1.502949   -0.035537 C.ar      1 <1>        -0.010767 
     11 C           3.303673   -0.267175   -0.033477 C.ar      1 <1>         0.103110 
     12 C          -1.703365    4.405390    0.063649 C.ar      1 <1>         0.084553 
     13 C          -3.376283    2.590233    0.337995 C.ar      1 <1>        -0.000529 
     14 O           0.206475    5.823787   -0.141740 O.2       1 <1>        -0.284270 
     15 C           2.616153   -1.486761   -0.105717 C.ar      1 <1>         0.105717 
     16 C           0.314131   -2.807930   -0.032261 C.3       1 <1>        -0.006707 
     17 O           4.701474   -0.284957   -0.081376 O.3       1 <1>        -0.357254 
     18 C          -2.710581    5.386079    0.013967 C.ar      1 <1>         0.088401 
     19 C          -4.456710    3.606471    0.266670 C.ar      1 <1>         0.077519 
     20 O           3.330399   -2.677775   -0.253286 O.3       1 <1>        -0.357037 
     21 C           1.045301   -4.041322    0.447401 C.2       1 <1>        -0.080897 
     22 C          -4.129525    4.958910    0.119593 C.ar      1 <1>        -0.001302 
     23 O          -2.371034    6.731296   -0.140677 O.3       1 <1>        -0.358954 
     24 O          -5.799478    3.233675    0.341134 O.3       1 <1>        -0.359667 
     25 C           0.799175   -5.292881    0.024008 C.2       1 <1>        -0.079307 
     26 C           1.633051   -6.468677    0.485509 C.3       1 <1>        -0.044040 
     27 C          -0.322870   -5.625728   -0.932678 C.3       1 <1>        -0.044040 
     28 H          -0.636562   -0.307595    0.055301 H         1 <1>         0.062787 
     29 H           3.144309    1.912649    0.162583 H         1 <1>         0.065076 
     30 H           2.195688    4.711297   -0.485457 H         1 <1>         0.217537 
     31 H          -3.613776    1.540735    0.467680 H         1 <1>         0.066947 
     32 H          -0.550165   -2.685504    0.638969 H         1 <1>         0.035641 
     33 H          -0.046075   -2.930946   -1.064772 H         1 <1>         0.035641 
     34 H           5.101946    0.573881   -0.014145 H         1 <1>         0.217422 
     35 H           4.270451   -2.529965   -0.221633 H         1 <1>         0.217432 
     36 H           1.819900   -3.884174    1.197287 H         1 <1>         0.057472 
     37 H          -4.927730    5.690791    0.076781 H         1 <1>         0.066923 
     38 H          -3.117465    7.320194   -0.150689 H         1 <1>         0.217342 
     39 H          -5.937603    2.293728    0.302489 H         1 <1>         0.217316 
     40 H           1.005153   -7.171477    1.053246 H         1 <1>         0.027427 
     41 H           2.036190   -6.992076   -0.394851 H         1 <1>         0.027427 
     42 H           2.482785   -6.179521    1.122338 H         1 <1>         0.027427 
     43 H          -0.661520   -6.662228   -0.783823 H         1 <1>         0.027427 
     44 H          -1.197856   -4.977321   -0.774812 H         1 <1>         0.027427 
     45 H           0.030892   -5.514058   -1.967426 H         1 <1>         0.027427 
@<TRIPOS>BOND
     1    1    2 1    
     2    1    3 1    
     3    1    4 2    
     4    2    5 1    
     5    2    6 2    
     6    3    7 1    
     7    4    8 1    
     8    4    9 1    
     9    5   10 2    
    10    5   28 1    
    11    6   11 1    
    12    6   29 1    
    13    7   12 1    
    14    7   13 2    
    15    8   12 1    
    16    8   14 2    
    17    9   30 1    
    18   10   15 1    
    19   10   16 1    
    20   11   15 2    
    21   11   17 1    
    22   12   18 2    
    23   13   19 1    
    24   13   31 1    
    25   15   20 1    
    26   16   21 1    
    27   16   32 1    
    28   16   33 1    
    29   17   34 1    
    30   18   22 1    
    31   18   23 1    
    32   19   22 2    
    33   19   24 1    
    34   20   35 1    
    35   21   25 2    
    36   21   36 1    
    37   22   37 1    
    38   23   38 1    
    39   24   39 1    
    40   25   26 1    
    41   25   27 1    
    42   26   40 1    
    43   26   41 1    
    44   26   42 1    
    45   27   43 1    
    46   27   44 1    
    47   27   45 1    
@<TRIPOS>SUBSTRUCTURE
     1 ****        1 TEMP              0 ****  ****    0 ROOT 
@<TRIPOS>NORMAL
@<TRIPOS>FF_PBC
FORCE_FIELD_SETUP_FEATURE Force Field Setup information
v1.0  0 0.000000 0.000000 0.000000 0.000000 0.000000 0.000000 NONE 0 0 0 0 1 0 0 0 0 0 0 0 0
