@<TRIPOS>MOLECULE
MOL004640
  145   152     1     1     0
SMALL
GASTEIGER


@<TRIPOS>ATOM
      1 O           2.236738   -8.333050    3.112351 O.3       1 <1>        -0.343069 
      2 C           2.722148   -7.161666    2.430556 C.3       1 <1>         0.188322 
      3 C           3.848611   -6.504792    3.269881 C.3       1 <1>         0.134121 
      4 C           3.265025   -6.116700    4.649964 C.3       1 <1>         0.113972 
      5 C           2.689977   -7.380188    5.339129 C.3       1 <1>         0.109478 
      6 C           1.648523   -8.052488    4.399699 C.3       1 <1>         0.087307 
      7 O           1.555933   -6.336222    2.219022 O.3       1 <1>        -0.340141 
      8 C           1.740603   -5.103389    1.484387 C.3       1 <1>         0.118420 
      9 C           2.317075   -5.302474    0.055724 C.3       1 <1>         0.114426 
     10 C           2.151152   -4.013263   -0.791723 C.3       1 <1>         0.134131 
     11 C           0.678080   -3.546509   -0.767392 C.3       1 <1>         0.188230 
     12 O           0.289002   -3.308975    0.591862 O.3       1 <1>        -0.340503 
     13 C           0.314321   -4.498734    1.400336 C.3       1 <1>         0.113729 
     14 O           4.939068   -7.435645    3.429729 O.3       1 <1>        -0.384104 
     15 O           4.317789   -5.537600    5.444868 O.3       1 <1>        -0.386402 
     16 O           2.116639   -6.947468    6.589929 O.3       1 <1>        -0.386579 
     17 C           1.141840   -9.410386    4.949885 C.3       1 <1>        -0.036060 
     18 O           3.720187   -5.619030    0.141090 O.3       1 <1>        -0.386391 
     19 O           2.582037   -4.285707   -2.140035 O.3       1 <1>        -0.384104 
     20 O           0.573585   -2.331816   -1.535887 O.3       1 <1>        -0.344892 
     21 C          -0.730202   -1.702056   -1.530553 C.3       1 <1>         0.067174 
     22 C          -1.045924   -1.038776   -2.918986 C.3       1 <1>        -0.005229 
     23 C          -0.815760    0.535862   -2.888116 C.3       1 <1>        -0.027826 
     24 C           0.365660    1.071979   -1.996355 C.3       1 <1>        -0.024959 
     25 C           0.514474    2.665479   -2.069079 C.3       1 <1>        -0.025735 
     26 C          -0.757499    3.528470   -2.401377 C.3       1 <1>        -0.019291 
     27 C          -1.987553    2.725288   -1.900228 C.3       1 <1>        -0.046267 
     28 C          -2.135200    1.360654   -2.635550 C.3       1 <1>        -0.048609 
     29 C          -0.858618   -0.664045   -0.383347 C.3       1 <1>        -0.025470 
     30 C           0.110630    0.550098   -0.524417 C.3       1 <1>        -0.044711 
     31 C           1.678403    3.321498   -2.878480 C.3       1 <1>        -0.030614 
     32 C           1.645297    4.836835   -2.843826 C.2       1 <1>        -0.083644 
     33 C           0.650769    5.598526   -2.349378 C.2       1 <1>        -0.063151 
     34 C          -0.594891    4.969848   -1.732317 C.3       1 <1>        -0.002789 
     35 C          -1.873240    5.845534   -1.972392 C.3       1 <1>        -0.016610 
     36 C          -1.692392    7.375059   -1.776880 C.3       1 <1>         0.064286 
     37 C          -0.518513    7.954264   -2.631742 C.3       1 <1>         0.026309 
     38 C          -0.278384    9.450852   -2.213977 C.3       1 <1>        -0.041883 
     39 C           1.207480    9.885823   -2.332666 C.3       1 <1>        -0.047178 
     40 C           2.126559    9.074409   -1.361052 C.3       1 <1>        -0.034297 
     41 C           1.549210    7.636545   -1.140558 C.3       1 <1>        -0.040648 
     42 C           0.781622    7.119396   -2.387927 C.3       1 <1>        -0.008787 
     43 C          -0.224374   -4.121579    2.803451 C.3       1 <1>         0.079566 
     44 O          -1.598299   -3.710314    2.652337 O.3       1 <1>        -0.346049 
     45 C          -2.253702   -3.428017    3.901099 C.3       1 <1>         0.188012 
     46 O          -2.377292   -4.608410    4.718157 O.3       1 <1>        -0.340532 
     47 C          -3.284678   -5.607692    4.199144 C.3       1 <1>         0.113005 
     48 C          -4.694378   -5.032312    3.880846 C.3       1 <1>         0.111896 
     49 C          -4.587082   -3.778032    2.973842 C.3       1 <1>         0.114061 
     50 C          -3.622353   -2.754677    3.630659 C.3       1 <1>         0.134113 
     51 C          -2.516885   -1.415765   -3.332095 C.3       1 <1>        -0.057181 
     52 C          -0.192578   -1.732337   -4.042112 C.3       1 <1>        -0.057181 
     53 C           1.755357    0.487085   -2.426217 C.3       1 <1>        -0.059009 
     54 C          -0.957069    3.703882   -3.958889 C.3       1 <1>        -0.058490 
     55 C          -0.316830    4.937035   -0.183584 C.3       1 <1>        -0.055242 
     56 O          -2.954340    7.982926   -2.120577 O.3       1 <1>        -0.391114 
     57 C          -0.889487    7.895213   -4.151238 C.3       1 <1>         0.052730 
     58 O           0.075807    8.604294   -4.950890 O.3       1 <1>        -0.394355 
     59 C           3.562417    9.000959   -1.967596 C.3       1 <1>        -0.059793 
     60 C           2.234297    9.793396    0.019575 C.3       1 <1>        -0.059793 
     61 C          -2.690158   -6.466684    3.049314 C.3       1 <1>         0.073015 
     62 O          -3.566552   -7.581430    2.789936 O.3       1 <1>        -0.392366 
     63 O          -5.351608   -4.720733    5.128450 O.3       1 <1>        -0.386488 
     64 O          -4.164985   -4.166936    1.651358 O.3       1 <1>        -0.386401 
     65 O          -4.145297   -2.225839    4.868002 O.3       1 <1>        -0.384104 
     66 H           3.137328   -7.533863    1.482108 H         1 <1>         0.093751 
     67 H           4.235410   -5.608153    2.759110 H         1 <1>         0.067095 
     68 H           2.454384   -5.379371    4.514659 H         1 <1>         0.064757 
     69 H           3.526263   -8.077079    5.520480 H         1 <1>         0.064584 
     70 H           0.776244   -7.386104    4.294234 H         1 <1>         0.062075 
     71 H           2.373278   -4.381266    2.022347 H         1 <1>         0.065052 
     72 H           1.764332   -6.126473   -0.427924 H         1 <1>         0.064768 
     73 H           2.770353   -3.215464   -0.346257 H         1 <1>         0.067095 
     74 H           0.054239   -4.318399   -1.250317 H         1 <1>         0.093750 
     75 H          -0.369928   -5.253968    0.978382 H         1 <1>         0.064687 
     76 H           5.632378   -7.079321    3.978561 H         1 <1>         0.210110 
     77 H           4.013118   -5.314924    6.320345 H         1 <1>         0.210005 
     78 H           1.810342   -7.661832    7.138486 H         1 <1>         0.210002 
     79 H           0.583820   -9.287539    5.889746 H         1 <1>         0.025536 
     80 H           0.468714   -9.873227    4.211367 H         1 <1>         0.025536 
     81 H           1.989423  -10.091217    5.121695 H         1 <1>         0.025536 
     82 H           4.111080   -5.742073   -0.720231 H         1 <1>         0.210005 
     83 H           2.482038   -3.521270   -2.701423 H         1 <1>         0.210110 
     84 H          -1.484271   -2.488604   -1.349076 H         1 <1>         0.060224 
     85 H          -0.494212    0.754663   -3.913349 H         1 <1>         0.031210 
     86 H           0.847879    2.879312   -1.050772 H         1 <1>         0.031460 
     87 H          -2.917284    3.294170   -2.059733 H         1 <1>         0.027096 
     88 H          -1.930450    2.543665   -0.822110 H         1 <1>         0.027096 
     89 H          -2.630304    1.528630   -3.606973 H         1 <1>         0.026846 
     90 H          -2.875571    0.838892   -2.020997 H         1 <1>         0.026846 
     91 H          -0.688541   -1.140221    0.594525 H         1 <1>         0.029047 
     92 H          -1.899286   -0.314834   -0.351293 H         1 <1>         0.029047 
     93 H           1.066585    0.255274   -0.060361 H         1 <1>         0.027149 
     94 H          -0.288358    1.324911    0.145950 H         1 <1>         0.027149 
     95 H           2.670427    3.063141   -2.476730 H         1 <1>         0.031042 
     96 H           1.656408    3.006454   -3.931714 H         1 <1>         0.031042 
     97 H           2.527672    5.317452   -3.271418 H         1 <1>         0.057198 
     98 H          -2.666672    5.520516   -1.280506 H         1 <1>         0.029875 
     99 H          -2.278978    5.733527   -2.981846 H         1 <1>         0.029875 
    100 H          -1.531913    7.582059   -0.708676 H         1 <1>         0.059982 
    101 H          -0.901379   10.120443   -2.829291 H         1 <1>         0.027247 
    102 H          -0.563297    9.633714   -1.167059 H         1 <1>         0.027247 
    103 H           1.298570   10.963892   -2.121083 H         1 <1>         0.027063 
    104 H           1.526969    9.752360   -3.376382 H         1 <1>         0.027063 
    105 H           0.855897    7.639089   -0.289612 H         1 <1>         0.027632 
    106 H           2.367942    6.946100   -0.881077 H         1 <1>         0.027632 
    107 H           1.439463    7.342825   -3.241174 H         1 <1>         0.035286 
    108 H          -0.141720   -4.978483    3.488921 H         1 <1>         0.058744 
    109 H           0.380485   -3.292246    3.203431 H         1 <1>         0.058744 
    110 H          -1.658334   -2.696701    4.473025 H         1 <1>         0.093741 
    111 H          -3.420662   -6.316935    5.032263 H         1 <1>         0.064668 
    112 H          -5.288919   -5.802501    3.358662 H         1 <1>         0.064673 
    113 H          -5.588220   -3.323101    2.880800 H         1 <1>         0.064758 
    114 H          -3.452106   -1.915108    2.934509 H         1 <1>         0.067095 
    115 H          -2.835959   -0.843474   -4.216181 H         1 <1>         0.023587 
    116 H          -2.598845   -2.483173   -3.591867 H         1 <1>         0.023587 
    117 H          -3.251493   -1.265745   -2.528984 H         1 <1>         0.023587 
    118 H           0.876499   -1.508827   -4.008246 H         1 <1>         0.023587 
    119 H          -0.285580   -2.828232   -3.978684 H         1 <1>         0.023587 
    120 H          -0.542489   -1.424473   -5.040128 H         1 <1>         0.023587 
    121 H           1.963892    0.667542   -3.490519 H         1 <1>         0.023525 
    122 H           2.566466    0.925872   -1.828655 H         1 <1>         0.023525 
    123 H           1.859772   -0.581243   -2.240930 H         1 <1>         0.023525 
    124 H          -0.656219    2.831498   -4.541060 H         1 <1>         0.023542 
    125 H          -0.379387    4.532544   -4.383900 H         1 <1>         0.023542 
    126 H          -2.006822    3.884760   -4.231262 H         1 <1>         0.023542 
    127 H          -0.590901    5.864070    0.326949 H         1 <1>         0.023830 
    128 H          -0.888612    4.154687    0.327062 H         1 <1>         0.023830 
    129 H           0.747677    4.793029    0.056316 H         1 <1>         0.023830 
    130 H          -2.989108    8.922368   -1.969988 H         1 <1>         0.209802 
    131 H          -1.881371    8.346678   -4.319352 H         1 <1>         0.056353 
    132 H          -0.922600    6.854514   -4.502315 H         1 <1>         0.056353 
    133 H          -0.117793    8.594947   -5.883986 H         1 <1>         0.209421 
    134 H           4.256986    8.503845   -1.273131 H         1 <1>         0.023499 
    135 H           3.944048   10.014407   -2.166034 H         1 <1>         0.023499 
    136 H           3.572796    8.440541   -2.914067 H         1 <1>         0.023499 
    137 H           2.841102    9.193920    0.715910 H         1 <1>         0.023499 
    138 H           1.242831    9.944348    0.471910 H         1 <1>         0.023499 
    139 H           2.711363   10.779935   -0.087506 H         1 <1>         0.023499 
    140 H          -1.706154   -6.847969    3.368082 H         1 <1>         0.058370 
    141 H          -2.555874   -5.880433    2.130789 H         1 <1>         0.058370 
    142 H          -3.247441   -8.159484    2.102542 H         1 <1>         0.209508 
    143 H          -6.241477   -4.398845    5.026833 H         1 <1>         0.210004 
    144 H          -4.063458   -3.436818    1.048569 H         1 <1>         0.210005 
    145 H          -4.980089   -1.779067    4.772047 H         1 <1>         0.210110 
@<TRIPOS>BOND
     1    1    2 1    
     2    1    6 1    
     3    2    3 1    
     4    2    7 1    
     5    2   66 1    
     6    3    4 1    
     7    3   14 1    
     8    3   67 1    
     9    4    5 1    
    10    4   15 1    
    11    4   68 1    
    12    5    6 1    
    13    5   16 1    
    14    5   69 1    
    15    6   17 1    
    16    6   70 1    
    17    7    8 1    
    18    8    9 1    
    19    8   13 1    
    20    8   71 1    
    21    9   10 1    
    22    9   18 1    
    23    9   72 1    
    24   10   11 1    
    25   10   19 1    
    26   10   73 1    
    27   11   12 1    
    28   11   20 1    
    29   11   74 1    
    30   12   13 1    
    31   13   43 1    
    32   13   75 1    
    33   14   76 1    
    34   15   77 1    
    35   16   78 1    
    36   17   79 1    
    37   17   80 1    
    38   17   81 1    
    39   18   82 1    
    40   19   83 1    
    41   20   21 1    
    42   21   22 1    
    43   21   29 1    
    44   21   84 1    
    45   22   23 1    
    46   22   51 1    
    47   22   52 1    
    48   23   24 1    
    49   23   28 1    
    50   23   85 1    
    51   24   25 1    
    52   24   30 1    
    53   24   53 1    
    54   25   26 1    
    55   25   31 1    
    56   25   86 1    
    57   26   27 1    
    58   26   34 1    
    59   26   54 1    
    60   27   28 1    
    61   27   87 1    
    62   27   88 1    
    63   28   89 1    
    64   28   90 1    
    65   29   30 1    
    66   29   91 1    
    67   29   92 1    
    68   30   93 1    
    69   30   94 1    
    70   31   32 1    
    71   31   95 1    
    72   31   96 1    
    73   32   33 2    
    74   32   97 1    
    75   33   34 1    
    76   33   42 1    
    77   34   35 1    
    78   34   55 1    
    79   35   36 1    
    80   35   98 1    
    81   35   99 1    
    82   36   37 1    
    83   36   56 1    
    84   36  100 1    
    85   37   38 1    
    86   37   42 1    
    87   37   57 1    
    88   38   39 1    
    89   38  101 1    
    90   38  102 1    
    91   39   40 1    
    92   39  103 1    
    93   39  104 1    
    94   40   41 1    
    95   40   59 1    
    96   40   60 1    
    97   41   42 1    
    98   41  105 1    
    99   41  106 1    
   100   42  107 1    
   101   43   44 1    
   102   43  108 1    
   103   43  109 1    
   104   44   45 1    
   105   45   46 1    
   106   45   50 1    
   107   45  110 1    
   108   46   47 1    
   109   47   48 1    
   110   47   61 1    
   111   47  111 1    
   112   48   49 1    
   113   48   63 1    
   114   48  112 1    
   115   49   50 1    
   116   49   64 1    
   117   49  113 1    
   118   50   65 1    
   119   50  114 1    
   120   51  115 1    
   121   51  116 1    
   122   51  117 1    
   123   52  118 1    
   124   52  119 1    
   125   52  120 1    
   126   53  121 1    
   127   53  122 1    
   128   53  123 1    
   129   54  124 1    
   130   54  125 1    
   131   54  126 1    
   132   55  127 1    
   133   55  128 1    
   134   55  129 1    
   135   56  130 1    
   136   57   58 1    
   137   57  131 1    
   138   57  132 1    
   139   58  133 1    
   140   59  134 1    
   141   59  135 1    
   142   59  136 1    
   143   60  137 1    
   144   60  138 1    
   145   60  139 1    
   146   61   62 1    
   147   61  140 1    
   148   61  141 1    
   149   62  142 1    
   150   63  143 1    
   151   64  144 1    
   152   65  145 1    
@<TRIPOS>SUBSTRUCTURE
     1 ****        1 TEMP              0 ****  ****    0 ROOT 
@<TRIPOS>NORMAL
@<TRIPOS>FF_PBC
FORCE_FIELD_SETUP_FEATURE Force Field Setup information
v1.0  0 0.000000 0.000000 0.000000 0.000000 0.000000 0.000000 NONE 0 0 0 0 1 0 0 0 0 0 0 0 0
