@<TRIPOS>MOLECULE
MOL000358
   80    83     1     1     0
SMALL
GASTEIGER


@<TRIPOS>ATOM
      1 C          -0.594742   -1.147423    0.466561 C.3       1 <1>        -0.031972 
      2 C          -1.959628   -1.893356    0.482525 C.3       1 <1>        -0.030653 
      3 C          -0.639347    0.315233   -0.061749 C.3       1 <1>        -0.025885 
      4 C           0.147187   -1.043049    1.812336 C.3       1 <1>        -0.049160 
      5 C          -2.545711   -1.940440   -0.957582 C.3       1 <1>        -0.028547 
      6 C          -1.755159   -3.341448    1.001887 C.3       1 <1>        -0.031102 
      7 C           0.869596    0.697313    0.140132 C.3       1 <1>        -0.032778 
      8 C          -1.153326    0.194148   -1.531574 C.3       1 <1>        -0.046813 
      9 C          -1.539778    1.279253    0.778061 C.3       1 <1>        -0.059038 
     10 C           1.209788    0.055401    1.527952 C.3       1 <1>        -0.049187 
     11 C          -3.930032   -2.695669   -1.021994 C.3       1 <1>        -0.007820 
     12 C          -2.536881   -0.519512   -1.606794 C.3       1 <1>        -0.048644 
     13 C          -2.865546   -4.283720    0.625530 C.2       1 <1>        -0.083874 
     14 C           1.350640    2.191288    0.042602 C.3       1 <1>        -0.040533 
     15 C          -3.828720   -4.020572   -0.269955 C.2       1 <1>        -0.064841 
     16 C          -4.288796   -2.953534   -2.524803 C.3       1 <1>        -0.041314 
     17 C          -5.085410   -1.889733   -0.345963 C.3       1 <1>        -0.055578 
     18 C           2.889015    2.258866    0.329521 C.3       1 <1>        -0.049933 
     19 C           1.028683    2.828373   -1.340267 C.3       1 <1>        -0.062146 
     20 C          -4.888233   -5.072737   -0.553794 C.3       1 <1>        -0.005079 
     21 C          -5.425263   -3.982213   -2.756091 C.3       1 <1>        -0.025766 
     22 C           3.540085    3.668965    0.210159 C.3       1 <1>        -0.049734 
     23 C          -5.063134   -5.318431   -2.068451 C.3       1 <1>         0.058951 
     24 C           4.867994    3.905171    1.009463 C.3       1 <1>        -0.038944 
     25 O          -6.113996   -6.283970   -2.251829 O.3       1 <1>        -0.391474 
     26 C           6.074461    2.960658    0.657893 C.3       1 <1>        -0.043894 
     27 C           4.662966    4.037144    2.554959 C.3       1 <1>        -0.052828 
     28 C           6.035987    1.530653    1.275907 C.3       1 <1>        -0.062414 
     29 C           6.338841    2.877151   -0.871807 C.3       1 <1>        -0.062414 
     30 C           3.810789    5.264995    2.986885 C.3       1 <1>        -0.065017 
     31 H           0.067984   -1.733924   -0.197169 H         1 <1>         0.030896 
     32 H          -2.645351   -1.374795    1.164579 H         1 <1>         0.030949 
     33 H           0.601872   -2.000075    2.119476 H         1 <1>         0.026828 
     34 H          -0.562496   -0.735239    2.597653 H         1 <1>         0.026828 
     35 H          -1.823179   -2.541288   -1.535745 H         1 <1>         0.031195 
     36 H          -1.640240   -3.326791    2.098618 H         1 <1>         0.031025 
     37 H          -0.843715   -3.784867    0.571330 H         1 <1>         0.031025 
     38 H           1.435768    0.149050   -0.632031 H         1 <1>         0.030870 
     39 H          -1.273566    1.176980   -2.004594 H         1 <1>         0.027078 
     40 H          -0.430617   -0.372766   -2.141062 H         1 <1>         0.027078 
     41 H          -1.597765    2.256009    0.278609 H         1 <1>         0.023524 
     42 H          -2.568044    0.920559    0.900897 H         1 <1>         0.023524 
     43 H          -1.140740    1.452551    1.786412 H         1 <1>         0.023524 
     44 H           1.176235    0.794449    2.345183 H         1 <1>         0.026828 
     45 H           2.221249   -0.385896    1.510180 H         1 <1>         0.026828 
     46 H          -2.796209   -0.593451   -2.674585 H         1 <1>         0.026846 
     47 H          -3.285539    0.129288   -1.136035 H         1 <1>         0.026846 
     48 H          -2.842809   -5.246728    1.138625 H         1 <1>         0.057190 
     49 H           0.844166    2.791984    0.816297 H         1 <1>         0.030096 
     50 H          -4.595877   -2.017517   -3.015771 H         1 <1>         0.027446 
     51 H          -3.404169   -3.338149   -3.057717 H         1 <1>         0.027446 
     52 H          -4.865114   -1.668323    0.706416 H         1 <1>         0.023820 
     53 H          -5.281025   -0.942399   -0.864744 H         1 <1>         0.023820 
     54 H          -6.033391   -2.441394   -0.355428 H         1 <1>         0.023820 
     55 H           3.070739    1.904493    1.350755 H         1 <1>         0.026802 
     56 H           3.390823    1.575821   -0.371215 H         1 <1>         0.026802 
     57 H           1.461669    3.831532   -1.447308 H         1 <1>         0.023250 
     58 H          -0.050149    2.967709   -1.465786 H         1 <1>         0.023250 
     59 H           1.414135    2.197051   -2.155159 H         1 <1>         0.023250 
     60 H          -4.641901   -6.046819   -0.101981 H         1 <1>         0.033510 
     61 H          -5.850359   -4.762526   -0.121918 H         1 <1>         0.033510 
     62 H          -5.547406   -4.153322   -3.839407 H         1 <1>         0.029039 
     63 H          -6.388524   -3.614016   -2.371526 H         1 <1>         0.029039 
     64 H           3.737251    3.874433   -0.853966 H         1 <1>         0.026810 
     65 H           2.803380    4.414425    0.539290 H         1 <1>         0.026810 
     66 H          -4.113733   -5.710879   -2.477145 H         1 <1>         0.059621 
     67 H           5.205697    4.907897    0.687504 H         1 <1>         0.030319 
     68 H          -6.268643   -6.497136   -3.166546 H         1 <1>         0.209789 
     69 H           6.975701    3.432956    1.092636 H         1 <1>         0.029814 
     70 H           5.652698    4.158038    3.028024 H         1 <1>         0.026538 
     71 H           4.198789    3.135760    2.982300 H         1 <1>         0.026538 
     72 H           6.993912    1.019886    1.086966 H         1 <1>         0.023242 
     73 H           5.893792    1.563871    2.365210 H         1 <1>         0.023242 
     74 H           5.249181    0.903934    0.842167 H         1 <1>         0.023242 
     75 H           7.293746    2.363946   -1.068802 H         1 <1>         0.023242 
     76 H           6.395770    3.885473   -1.310522 H         1 <1>         0.023242 
     77 H           5.544589    2.314762   -1.381377 H         1 <1>         0.023242 
     78 H           3.874681    5.397668    4.078619 H         1 <1>         0.022986 
     79 H           2.748070    5.134434    2.734269 H         1 <1>         0.022986 
     80 H           4.181344    6.184697    2.508037 H         1 <1>         0.022986 
@<TRIPOS>BOND
     1    1    2 1    
     2    1    3 1    
     3    1    4 1    
     4    1   31 1    
     5    2    5 1    
     6    2    6 1    
     7    2   32 1    
     8    3    7 1    
     9    3    8 1    
    10    3    9 1    
    11    4   10 1    
    12    4   33 1    
    13    4   34 1    
    14    5   11 1    
    15    5   12 1    
    16    5   35 1    
    17    6   13 1    
    18    6   36 1    
    19    6   37 1    
    20    7   10 1    
    21    7   14 1    
    22    7   38 1    
    23    8   12 1    
    24    8   39 1    
    25    8   40 1    
    26    9   41 1    
    27    9   42 1    
    28    9   43 1    
    29   10   44 1    
    30   10   45 1    
    31   11   15 1    
    32   11   16 1    
    33   11   17 1    
    34   12   46 1    
    35   12   47 1    
    36   13   15 2    
    37   13   48 1    
    38   14   18 1    
    39   14   19 1    
    40   14   49 1    
    41   15   20 1    
    42   16   21 1    
    43   16   50 1    
    44   16   51 1    
    45   17   52 1    
    46   17   53 1    
    47   17   54 1    
    48   18   22 1    
    49   18   55 1    
    50   18   56 1    
    51   19   57 1    
    52   19   58 1    
    53   19   59 1    
    54   20   23 1    
    55   20   60 1    
    56   20   61 1    
    57   21   23 1    
    58   21   62 1    
    59   21   63 1    
    60   22   24 1    
    61   22   64 1    
    62   22   65 1    
    63   23   25 1    
    64   23   66 1    
    65   24   26 1    
    66   24   27 1    
    67   24   67 1    
    68   25   68 1    
    69   26   28 1    
    70   26   29 1    
    71   26   69 1    
    72   27   30 1    
    73   27   70 1    
    74   27   71 1    
    75   28   72 1    
    76   28   73 1    
    77   28   74 1    
    78   29   75 1    
    79   29   76 1    
    80   29   77 1    
    81   30   78 1    
    82   30   79 1    
    83   30   80 1    
@<TRIPOS>SUBSTRUCTURE
     1 ****        1 TEMP              0 ****  ****    0 ROOT 
@<TRIPOS>NORMAL
@<TRIPOS>FF_PBC
FORCE_FIELD_SETUP_FEATURE Force Field Setup information
v1.0  0 0.000000 0.000000 0.000000 0.000000 0.000000 0.000000 NONE 0 0 0 0 1 0 0 0 0 0 0 0 0
