@<TRIPOS>MOLECULE
MOL002263
   94   102     1     1     0
SMALL
GASTEIGER


@<TRIPOS>ATOM
      1 C          -2.117086    0.384278    0.908607 C.3       1 <1>         0.001343 
      2 C          -2.474398    1.314152   -0.301350 C.3       1 <1>         0.065431 
      3 C          -1.304826    2.296257   -0.598496 C.3       1 <1>         0.023222 
      4 C           0.008683    1.475474   -0.759677 C.3       1 <1>         0.008160 
      5 C           0.121267   -0.010760   -0.329265 C.3       1 <1>         0.035851 
      6 C          -0.620676   -0.079100    1.049574 C.3       1 <1>         0.079241 
      7 C           0.477429    1.685052   -2.199113 C.3       1 <1>         0.089533 
      8 C           1.985256    1.312699   -2.389912 C.3       1 <1>         0.094470 
      9 C           2.645239    0.449004   -1.250143 C.3       1 <1>         0.039373 
     10 C           1.639565   -0.446713   -0.372855 C.3       1 <1>         0.044224 
     11 O           2.943295    2.371525   -2.621762 O.3       1 <1>        -0.363874 
     12 C           3.498184    2.820440   -1.376575 C.3       1 <1>         0.104722 
     13 C           3.417129    1.585378   -0.426822 C.3       1 <1>         0.129114 
     14 C           5.004562    3.249812   -1.347812 C.3       1 <1>         0.030430 
     15 C           5.424947    2.841923    0.087573 C.3       1 <1>        -0.015024 
     16 C           4.904510    1.386784    0.055229 C.3       1 <1>         0.094202 
     17 C           1.557439   -2.007371   -0.598418 C.3       1 <1>         0.262063 
     18 O           0.150768   -2.254339   -0.571727 O.3       1 <1>        -0.339902 
     19 C          -0.491193   -1.145600   -1.200901 C.3       1 <1>         0.060250 
     20 C           5.943848    2.527480   -2.358060 C.3       1 <1>         0.142634 
     21 C           6.553627    1.223733   -1.749089 C.3       1 <1>         0.197086 
     22 C           2.413290   -2.766019    0.425373 C.2       1 <1>         0.322505 
     23 O           3.564497   -2.402152    0.599305 O.2       1 <1>        -0.258948 
     24 O           2.014488   -3.806605    1.190692 O.3       1 <1>        -0.314467 
     25 C           0.648883   -4.253881    1.115530 C.3       1 <1>         0.046041 
     26 O           1.871891   -2.396479   -1.948632 O.3       1 <1>        -0.343887 
     27 C           1.679518   -3.788634   -2.261488 C.3       1 <1>         0.040211 
     28 C           3.686391   -0.414138   -2.042163 C.3       1 <1>        -0.053824 
     29 O           2.748501    2.096312    0.750919 O.3       1 <1>        -0.382486 
     30 C           2.670815    4.079840   -0.963110 C.3       1 <1>        -0.032605 
     31 O           5.787946    0.553641   -0.726274 O.3       1 <1>        -0.341681 
     32 C           7.219639    3.313663   -2.491399 C.2       1 <1>        -0.024833 
     33 C           8.195308    2.699964   -1.827347 C.2       1 <1>         0.042183 
     34 O           7.855309    1.564258   -1.233677 O.3       1 <1>        -0.319751 
     35 O           5.341489    2.387843   -3.657933 O.3       1 <1>        -0.379024 
     36 C          -1.246949    3.356383    0.554849 C.3       1 <1>        -0.054735 
     37 O          -2.838832    0.495982   -1.429985 O.3       1 <1>        -0.391074 
     38 O           0.009928    0.792577    2.023956 O.3       1 <1>        -0.307810 
     39 C          -1.338404    3.091122   -1.947708 C.3       1 <1>         0.056223 
     40 C           0.975477    0.278528    2.807957 C.2       1 <1>         0.286874 
     41 O           1.868301    1.019676    3.183516 O.2       1 <1>        -0.259869 
     42 C           1.005359   -1.137314    3.225962 C.2       1 <1>         0.010501 
     43 H           1.957102   -1.640804    3.076357 H         1 <1>         0.067735 
     44 C          -0.059589   -1.754250    3.755533 C.2       1 <1>        -0.048937 
     45 H          -0.974427   -1.174442    3.885669 H         1 <1>         0.062525 
     46 C          -0.084420   -3.211237    4.169833 C.ar      1 <1>        -0.024850 
     47 C          -1.345594   -3.857149    4.292671 C.ar      1 <1>        -0.054590 
     48 C          -1.426507   -5.289381    4.664557 C.ar      1 <1>        -0.061202 
     49 C          -0.253799   -6.019297    4.900521 C.ar      1 <1>        -0.061723 
     50 C           1.065521   -5.353763    4.790828 C.ar      1 <1>        -0.061202 
     51 C           1.148973   -3.993679    4.443916 C.ar      1 <1>        -0.054590 
     52 O           0.017589    3.022372   -2.438912 O.3       1 <1>        -0.373032 
     53 H          -2.394997    0.881611    1.852269 H         1 <1>         0.031562 
     54 H          -2.786564   -0.489567    0.832238 H         1 <1>         0.031562 
     55 H          -3.384116    1.882739   -0.031294 H         1 <1>         0.060021 
     56 H           0.692448    1.995600   -0.100794 H         1 <1>         0.034045 
     57 H          -0.672054   -1.118740    1.396765 H         1 <1>         0.060940 
     58 H          -0.145486    1.059427   -2.861193 H         1 <1>         0.062508 
     59 H           1.990775    0.815625   -3.375008 H         1 <1>         0.062865 
     60 H           2.023294   -0.356675    0.642846 H         1 <1>         0.037236 
     61 H           5.119626    4.334283   -1.509083 H         1 <1>         0.036305 
     62 H           4.904625    3.429848    0.859442 H         1 <1>         0.029569 
     63 H           6.500943    2.923728    0.298235 H         1 <1>         0.029569 
     64 H           4.937327    0.917802    1.051352 H         1 <1>         0.062688 
     65 H          -0.231097   -1.118960   -2.269601 H         1 <1>         0.056748 
     66 H          -1.560619   -1.357598   -1.102679 H         1 <1>         0.056748 
     67 H           6.770179    0.498992   -2.550767 H         1 <1>         0.094705 
     68 H           0.565395   -5.103684    1.808716 H         1 <1>         0.052964 
     69 H           0.369975   -4.620087    0.119514 H         1 <1>         0.052964 
     70 H          -0.062450   -3.489936    1.454082 H         1 <1>         0.052964 
     71 H           2.012544   -3.930067   -3.300181 H         1 <1>         0.052472 
     72 H           0.619220   -4.076806   -2.208924 H         1 <1>         0.052472 
     73 H           2.282013   -4.447708   -1.618477 H         1 <1>         0.052472 
     74 H           4.382173    0.244271   -2.565246 H         1 <1>         0.023692 
     75 H           3.281170   -0.992302   -2.879166 H         1 <1>         0.023692 
     76 H           4.234352   -1.105904   -1.390285 H         1 <1>         0.023692 
     77 H           2.765159    1.568261    1.541361 H         1 <1>         0.210423 
     78 H           1.603599    3.886776   -0.881887 H         1 <1>         0.025834 
     79 H           2.999455    4.511666   -0.007258 H         1 <1>         0.025834 
     80 H           2.786185    4.849597   -1.741405 H         1 <1>         0.025834 
     81 H           7.316780    4.251708   -3.037240 H         1 <1>         0.062168 
     82 H           9.206324    3.100605   -1.756186 H         1 <1>         0.088354 
     83 H           5.916226    2.000893   -4.309416 H         1 <1>         0.210829 
     84 H          -0.440103    4.085532    0.390896 H         1 <1>         0.023669 
     85 H          -1.084544    2.904319    1.540840 H         1 <1>         0.023669 
     86 H          -2.191998    3.919571    0.598750 H         1 <1>         0.023669 
     87 H          -3.311642    0.933577   -2.129678 H         1 <1>         0.209803 
     88 H          -1.646769    4.143539   -1.849976 H         1 <1>         0.056617 
     89 H          -1.978064    2.637450   -2.714958 H         1 <1>         0.056617 
     90 H          -2.262434   -3.307974    4.106594 H         1 <1>         0.062344 
     91 H          -2.395592   -5.770280    4.750371 H         1 <1>         0.061776 
     92 H          -0.309359   -7.070268    5.166068 H         1 <1>         0.061759 
     93 H           1.970528   -5.921317    4.983615 H         1 <1>         0.061776 
     94 H           2.126804   -3.531590    4.385823 H         1 <1>         0.062344 
@<TRIPOS>BOND
     1    1    2 1    
     2    1    6 1    
     3    1   53 1    
     4    1   54 1    
     5    2    3 1    
     6    2   37 1    
     7    2   55 1    
     8    3    4 1    
     9    3   36 1    
    10    3   39 1    
    11    4    5 1    
    12    4    7 1    
    13    4   56 1    
    14    5    6 1    
    15    5   10 1    
    16    5   19 1    
    17    6   38 1    
    18    6   57 1    
    19    7    8 1    
    20    7   52 1    
    21    7   58 1    
    22    8    9 1    
    23    8   11 1    
    24    8   59 1    
    25    9   10 1    
    26    9   13 1    
    27    9   28 1    
    28   10   17 1    
    29   10   60 1    
    30   11   12 1    
    31   12   13 1    
    32   12   14 1    
    33   12   30 1    
    34   13   16 1    
    35   13   29 1    
    36   14   15 1    
    37   14   20 1    
    38   14   61 1    
    39   15   16 1    
    40   15   62 1    
    41   15   63 1    
    42   16   31 1    
    43   16   64 1    
    44   17   18 1    
    45   17   22 1    
    46   17   26 1    
    47   18   19 1    
    48   19   65 1    
    49   19   66 1    
    50   20   21 1    
    51   20   32 1    
    52   20   35 1    
    53   21   31 1    
    54   21   34 1    
    55   21   67 1    
    56   22   23 2    
    57   22   24 1    
    58   24   25 1    
    59   25   68 1    
    60   25   69 1    
    61   25   70 1    
    62   26   27 1    
    63   27   71 1    
    64   27   72 1    
    65   27   73 1    
    66   28   74 1    
    67   28   75 1    
    68   28   76 1    
    69   29   77 1    
    70   30   78 1    
    71   30   79 1    
    72   30   80 1    
    73   32   33 2    
    74   32   81 1    
    75   33   34 1    
    76   33   82 1    
    77   35   83 1    
    78   36   84 1    
    79   36   85 1    
    80   36   86 1    
    81   37   87 1    
    82   38   40 1    
    83   39   52 1    
    84   39   88 1    
    85   39   89 1    
    86   40   41 2    
    87   40   42 1    
    88   42   43 1    
    89   42   44 2    
    90   44   45 1    
    91   44   46 1    
    92   46   47 2    
    93   46   51 1    
    94   47   48 1    
    95   47   90 1    
    96   48   49 2    
    97   48   91 1    
    98   49   50 1    
    99   49   92 1    
   100   50   51 2    
   101   50   93 1    
   102   51   94 1    
@<TRIPOS>SUBSTRUCTURE
     1 ****        1 TEMP              0 ****  ****    0 ROOT 
@<TRIPOS>NORMAL
@<TRIPOS>FF_PBC
FORCE_FIELD_SETUP_FEATURE Force Field Setup information
v1.0  0 0.000000 0.000000 0.000000 0.000000 0.000000 0.000000 NONE 0 0 0 0 1 0 0 0 0 0 0 0 0
