@<TRIPOS>MOLECULE
MOL004550
   82    86     1     1     0
SMALL
GASTEIGER


@<TRIPOS>ATOM
      1 O          -2.129444   -2.684973    2.163444 O.3       1 <1>        -0.387962 
      2 O           5.084452    4.953751   -0.394995 O.3       1 <1>        -0.391248 
      3 O          -1.557096   -2.469659   -3.413588 O.3       1 <1>        -0.330835 
      4 O          -1.952173   -0.545427   -2.461821 O.2       1 <1>        -0.264535 
      5 C           1.323189   -0.000672   -0.414836 C.3       1 <1>        -0.019371 
      6 C           1.411725    1.219322    0.569542 C.3       1 <1>        -0.025736 
      7 C           2.534770    2.314923    0.322249 C.3       1 <1>        -0.024959 
      8 C           0.333343   -1.095673    0.210690 C.3       1 <1>        -0.005003 
      9 C           3.918103    1.582972    0.178281 C.3       1 <1>        -0.027836 
     10 C           2.761724   -0.587248   -0.621155 C.3       1 <1>        -0.046268 
     11 C          -1.058065   -0.467376    0.308104 C.2       1 <1>        -0.060209 
     12 C           3.872166    0.465569   -0.905496 C.3       1 <1>        -0.048609 
     13 C          -2.318043   -1.322021    0.113704 C.3       1 <1>         0.024091 
     14 C           5.228269    2.474600    0.142592 C.3       1 <1>        -0.005589 
     15 C          -0.015656    1.781860    0.873681 C.3       1 <1>        -0.030613 
     16 C           0.410040   -2.436279   -0.607146 C.3       1 <1>        -0.042412 
     17 C          -2.099837   -2.428350   -0.971325 C.3       1 <1>         0.065047 
     18 C           2.667998    3.175970    1.624440 C.3       1 <1>        -0.044720 
     19 C          -0.876858   -3.298302   -0.559605 C.3       1 <1>        -0.036878 
     20 C           0.812420    0.495168   -1.815664 C.3       1 <1>        -0.058491 
     21 C          -1.167345    0.842596    0.589926 C.2       1 <1>        -0.083544 
     22 C          -3.012460   -1.811702    1.445914 C.3       1 <1>         0.073301 
     23 C           5.011359    3.951546    0.639980 C.3       1 <1>         0.060637 
     24 C           2.206409    3.268081   -0.878830 C.3       1 <1>        -0.059009 
     25 C           0.641722   -1.480051    1.706721 C.3       1 <1>        -0.055322 
     26 C           3.827186    4.218556    1.619236 C.3       1 <1>        -0.025831 
     27 C          -3.390030   -3.284266   -1.153996 C.3       1 <1>        -0.037347 
     28 C          -4.337836   -2.575233    1.096175 C.3       1 <1>        -0.014594 
     29 C          -3.996612   -3.779699    0.180042 C.3       1 <1>        -0.046858 
     30 C           6.300739    1.805813    1.072674 C.3       1 <1>        -0.057190 
     31 C           5.900971    2.538424   -1.270626 C.3       1 <1>        -0.057190 
     32 C          -1.860832   -1.753744   -2.324116 C.2       1 <1>         0.266477 
     33 C          -3.302924   -0.604475    2.390326 C.3       1 <1>        -0.035232 
     34 C          -5.185459   -3.084497    2.303169 C.3       1 <1>        -0.059795 
     35 H           1.736167    0.755184    1.507480 H         1 <1>         0.031460 
     36 H           4.000764    0.998246    1.109271 H         1 <1>         0.031210 
     37 H           2.768321   -1.304064   -1.457472 H         1 <1>         0.027096 
     38 H           3.092893   -1.138938    0.267082 H         1 <1>         0.027096 
     39 H          -3.085891   -0.657624   -0.316198 H         1 <1>         0.038398 
     40 H           4.823961   -0.091892   -0.902596 H         1 <1>         0.026846 
     41 H           3.761319    0.894375   -1.909496 H         1 <1>         0.026846 
     42 H          -0.095818    2.062852    1.937133 H         1 <1>         0.031042 
     43 H          -0.230087    2.691759    0.300195 H         1 <1>         0.031042 
     44 H           1.256681   -3.043087   -0.244672 H         1 <1>         0.027403 
     45 H           0.601763   -2.286519   -1.673085 H         1 <1>         0.027403 
     46 H           1.722864    3.706408    1.823781 H         1 <1>         0.027149 
     47 H           2.836138    2.514170    2.491368 H         1 <1>         0.027149 
     48 H          -0.755857   -4.157110   -1.239200 H         1 <1>         0.027588 
     49 H          -1.002139   -3.741797    0.432687 H         1 <1>         0.027588 
     50 H           0.632030   -0.302585   -2.541186 H         1 <1>         0.023542 
     51 H          -0.119599    1.068234   -1.740039 H         1 <1>         0.023542 
     52 H           1.541708    1.134150   -2.318094 H         1 <1>         0.023542 
     53 H          -2.155877    1.301911    0.636668 H         1 <1>         0.057199 
     54 H           5.926556    4.269805    1.169369 H         1 <1>         0.059852 
     55 H           1.210652    3.135610   -1.309326 H         1 <1>         0.023525 
     56 H           2.222372    4.322907   -0.576086 H         1 <1>         0.023525 
     57 H           2.914359    3.138542   -1.703940 H         1 <1>         0.023525 
     58 H           0.175800   -2.429309    1.986193 H         1 <1>         0.023829 
     59 H           1.706899   -1.629451    1.915298 H         1 <1>         0.023829 
     60 H           0.267250   -0.734515    2.426071 H         1 <1>         0.023829 
     61 H           4.210711    4.303499    2.652244 H         1 <1>         0.029037 
     62 H           3.423539    5.214706    1.373382 H         1 <1>         0.029037 
     63 H          -4.156401   -2.675668   -1.664261 H         1 <1>         0.027570 
     64 H          -3.192083   -4.163432   -1.787909 H         1 <1>         0.027570 
     65 H          -4.998548   -1.888556    0.539144 H         1 <1>         0.032585 
     66 H          -4.913078   -4.347379   -0.055803 H         1 <1>         0.026903 
     67 H          -3.306849   -4.466198    0.694273 H         1 <1>         0.026903 
     68 H           6.456608    0.749150    0.806851 H         1 <1>         0.023587 
     69 H           7.278672    2.306951    0.999794 H         1 <1>         0.023587 
     70 H           5.980583    1.853329    2.125674 H         1 <1>         0.023587 
     71 H           6.759169    3.228724   -1.251102 H         1 <1>         0.023587 
     72 H           6.294569    1.565202   -1.596394 H         1 <1>         0.023587 
     73 H           5.212501    2.894826   -2.047276 H         1 <1>         0.023587 
     74 H          -3.984967    0.114067    1.911896 H         1 <1>         0.025749 
     75 H          -2.368777   -0.095451    2.663890 H         1 <1>         0.025749 
     76 H          -3.752966   -0.922590    3.340061 H         1 <1>         0.025749 
     77 H          -6.074210   -3.621595    1.936192 H         1 <1>         0.023330 
     78 H          -5.559991   -2.259400    2.924796 H         1 <1>         0.023330 
     79 H          -4.621821   -3.782838    2.937681 H         1 <1>         0.023330 
     80 H          -2.441878   -2.976305    3.011566 H         1 <1>         0.210184 
     81 H           4.380316    4.940430   -1.027689 H         1 <1>         0.209800 
     82 H          -1.515841   -3.408778   -3.300910 H         1 <1>         0.220226 
@<TRIPOS>BOND
     1   22    1 1    
     2    1   80 1    
     3   23    2 1    
     4    2   81 1    
     5   32    3 1    
     6    3   82 1    
     7   32    4 2    
     8    5    6 1    
     9    8    5 1    
    10    5   10 1    
    11    5   20 1    
    12    6    7 1    
    13   15    6 1    
    14    6   35 1    
    15    7    9 1    
    16    7   18 1    
    17    7   24 1    
    18   11    8 1    
    19   16    8 1    
    20    8   25 1    
    21   12    9 1    
    22    9   14 1    
    23    9   36 1    
    24   10   12 1    
    25   10   37 1    
    26   10   38 1    
    27   13   11 1    
    28   11   21 2    
    29   12   40 1    
    30   12   41 1    
    31   17   13 1    
    32   13   22 1    
    33   13   39 1    
    34   14   23 1    
    35   14   30 1    
    36   14   31 1    
    37   21   15 1    
    38   15   42 1    
    39   15   43 1    
    40   19   16 1    
    41   16   44 1    
    42   16   45 1    
    43   17   19 1    
    44   17   27 1    
    45   17   32 1    
    46   18   26 1    
    47   18   46 1    
    48   18   47 1    
    49   19   48 1    
    50   19   49 1    
    51   20   50 1    
    52   20   51 1    
    53   20   52 1    
    54   21   53 1    
    55   22   28 1    
    56   22   33 1    
    57   23   26 1    
    58   23   54 1    
    59   24   55 1    
    60   24   56 1    
    61   24   57 1    
    62   25   58 1    
    63   25   59 1    
    64   25   60 1    
    65   26   61 1    
    66   26   62 1    
    67   27   29 1    
    68   27   63 1    
    69   27   64 1    
    70   28   29 1    
    71   28   34 1    
    72   28   65 1    
    73   29   66 1    
    74   29   67 1    
    75   30   68 1    
    76   30   69 1    
    77   30   70 1    
    78   31   71 1    
    79   31   72 1    
    80   31   73 1    
    81   33   74 1    
    82   33   75 1    
    83   33   76 1    
    84   34   77 1    
    85   34   78 1    
    86   34   79 1    
@<TRIPOS>SUBSTRUCTURE
     1 ****        5 TEMP              0 ****  ****    0 ROOT 
@<TRIPOS>NORMAL
@<TRIPOS>FF_PBC
FORCE_FIELD_SETUP_FEATURE Force Field Setup information
v1.0  0 0.000000 0.000000 0.000000 0.000000 0.000000 0.000000 NONE 0 0 0 0 1 0 0 0 0 0 0 0 0
