@<TRIPOS>MOLECULE
MOL000303
   26    25     1     1     0
SMALL
GASTEIGER


@<TRIPOS>ATOM
      1 C           4.387949    0.446647    0.000047 C.2       1 <1>         0.259588 
      2 C           3.133967   -0.388955   -0.000118 C.3       1 <1>         0.033006 
      3 C           1.842321    0.473177    0.000071 C.3       1 <1>        -0.044061 
      4 C           0.568247   -0.415560   -0.000097 C.3       1 <1>        -0.052596 
      5 C          -0.723321    0.447257    0.000109 C.3       1 <1>        -0.053054 
      6 C          -1.997802   -0.440679   -0.000081 C.3       1 <1>        -0.053306 
      7 C          -3.288504    0.423163    0.000131 C.3       1 <1>        -0.055911 
      8 C          -4.561010   -0.463511   -0.000082 C.3       1 <1>        -0.065276 
      9 O           4.361687    1.667747    0.000288 O.2       1 <1>        -0.265177 
     10 O           5.530637   -0.242831   -0.000091 O.3       1 <1>        -0.331267 
     11 H           3.152305   -1.031898   -0.893976 H         1 <1>         0.036600 
     12 H           3.152320   -1.032270    0.893473 H         1 <1>         0.036600 
     13 H           1.839398    1.119031    0.893919 H         1 <1>         0.027004 
     14 H           1.839377    1.119394   -0.893506 H         1 <1>         0.027004 
     15 H           0.574298   -1.061408   -0.893632 H         1 <1>         0.026540 
     16 H           0.574327   -1.061791    0.893173 H         1 <1>         0.026540 
     17 H          -0.729876    1.093090    0.893603 H         1 <1>         0.026528 
     18 H          -0.729891    1.093490   -0.893079 H         1 <1>         0.026528 
     19 H          -1.992994   -1.086555   -0.893566 H         1 <1>         0.026520 
     20 H          -1.992978   -1.086968    0.893117 H         1 <1>         0.026520 
     21 H          -3.300227    1.069411    0.893750 H         1 <1>         0.026265 
     22 H          -3.300229    1.069841   -0.893170 H         1 <1>         0.026265 
     23 H          -5.463339    0.168381    0.000073 H         1 <1>         0.022978 
     24 H          -4.582764   -1.104476   -0.895254 H         1 <1>         0.022978 
     25 H          -4.582762   -1.104913    0.894779 H         1 <1>         0.022978 
     26 H           6.288764    0.331485    0.000023 H         1 <1>         0.220208 
@<TRIPOS>BOND
     1    1    2 1    
     2    1    9 2    
     3    1   10 1    
     4    2    3 1    
     5    2   11 1    
     6    2   12 1    
     7    3    4 1    
     8    3   13 1    
     9    3   14 1    
    10    4    5 1    
    11    4   15 1    
    12    4   16 1    
    13    5    6 1    
    14    5   17 1    
    15    5   18 1    
    16    6    7 1    
    17    6   19 1    
    18    6   20 1    
    19    7    8 1    
    20    7   21 1    
    21    7   22 1    
    22    8   23 1    
    23    8   24 1    
    24    8   25 1    
    25   10   26 1    
@<TRIPOS>SUBSTRUCTURE
     1 ****        1 TEMP              0 ****  ****    0 ROOT 
@<TRIPOS>NORMAL
@<TRIPOS>FF_PBC
FORCE_FIELD_SETUP_FEATURE Force Field Setup information
v1.0  0 0.000000 0.000000 0.000000 0.000000 0.000000 0.000000 NONE 0 0 0 0 1 0 0 0 0 0 0 0 0
