@<TRIPOS>MOLECULE
MOL004701
  144   152     1     1     0
SMALL
GASTEIGER


@<TRIPOS>ATOM
      1 C           5.856156   -2.074162    0.961855 C.3       1 <1>         0.009124 
      2 C           5.809544   -0.495560    0.859282 C.3       1 <1>         0.096991 
      3 C           4.454544   -2.776083    0.537316 C.3       1 <1>        -0.016907 
      4 C           7.287297    0.086803    2.599347 C.3       1 <1>         0.025848 
      5 C           1.822730   -2.219807    0.115388 C.3       1 <1>        -0.021744 
      6 C          -7.537924    0.737957   -2.841291 C.3       1 <1>         0.188322 
      7 C           7.189336    0.202251    1.058247 C.3       1 <1>         0.002843 
      8 C          -2.682250   -1.300333   -2.640941 C.3       1 <1>         0.188231 
      9 C           3.278927   -1.716690    0.500713 C.3       1 <1>        -0.011151 
     10 C          -5.430168   -0.341741   -2.152027 C.3       1 <1>         0.118420 
     11 C          -7.543115    1.547017   -4.171951 C.3       1 <1>         0.134121 
     12 C          -3.816658   -1.769275   -3.577641 C.3       1 <1>         0.134131 
     13 C          -4.963017   -0.718377   -3.588322 C.3       1 <1>         0.114426 
     14 C           1.874749   -2.853937   -1.320071 C.3       1 <1>        -0.025206 
     15 C           0.488398   -3.241528   -1.971070 C.3       1 <1>         0.020641 
     16 C          -4.337610    1.304356    2.988605 C.3       1 <1>         0.134113 
     17 C          -7.316230    3.044133   -3.855060 C.3       1 <1>         0.113972 
     18 C          -4.770124    1.826862    4.380380 C.3       1 <1>         0.114061 
     19 C          -5.429929    1.625838    1.932333 C.3       1 <1>         0.188012 
     20 O          -3.238516   -1.108569   -1.333402 O.3       1 <1>        -0.340503 
     21 O           5.032077    0.070395    1.943068 O.3       1 <1>        -0.367842 
     22 O          -6.292615    0.825070   -2.106576 O.3       1 <1>        -0.340141 
     23 O          -8.606793    1.220408   -2.002461 O.3       1 <1>        -0.343069 
     24 O          -5.768709    3.027183    1.967049 O.3       1 <1>        -0.340532 
     25 C           5.001938   -0.099260   -0.329487 C.2       1 <1>        -0.055410 
     26 C          -4.191898   -0.032414   -1.261701 C.3       1 <1>         0.113729 
     27 C          -5.169002    3.320623    4.314387 C.3       1 <1>         0.111896 
     28 C          -8.463892    3.531190   -2.931686 C.3       1 <1>         0.109478 
     29 C           3.791327   -0.644498   -0.462669 C.2       1 <1>        -0.081074 
     30 C           6.293029   -2.303093    2.456914 C.3       1 <1>        -0.017380 
     31 C          -6.274606    3.493097    3.235862 C.3       1 <1>         0.113005 
     32 C           7.476812   -1.414720    2.969212 C.3       1 <1>         0.063916 
     33 C          -0.428853   -1.969627   -1.962938 C.3       1 <1>         0.069511 
     34 O          -1.704893   -2.353441   -2.530911 O.3       1 <1>        -0.344805 
     35 C           5.861284    0.500016    3.033568 C.3       1 <1>         0.057154 
     36 C          -8.548839    2.624887   -1.670236 C.3       1 <1>         0.087307 
     37 C           4.407635   -3.372982   -0.924151 C.3       1 <1>        -0.046183 
     38 C           0.834908   -1.000767    0.071852 C.3       1 <1>        -0.044437 
     39 C           3.018922   -3.907314   -1.418363 C.3       1 <1>        -0.048517 
     40 C           8.385974    1.016387    3.210206 C.3       1 <1>        -0.042066 
     41 C           7.348637    1.688792    0.624101 C.3       1 <1>        -0.041426 
     42 O          -5.005618    1.442917    0.561247 O.3       1 <1>        -0.346049 
     43 C          -4.518996    0.121731    0.249206 C.3       1 <1>         0.079566 
     44 C           8.786641    2.219312    0.961631 C.3       1 <1>        -0.034485 
     45 C          -0.554532   -1.319406   -0.555172 C.3       1 <1>        -0.025376 
     46 O          -6.561700    1.108019   -5.132065 O.3       1 <1>        -0.384104 
     47 O          -3.255736   -1.962623   -4.894319 O.3       1 <1>        -0.384104 
     48 O          -4.129387   -0.119615    3.096263 O.3       1 <1>        -0.384104 
     49 O          -6.084932   -1.273217   -4.305224 O.3       1 <1>        -0.386391 
     50 O          -3.673176    1.638208    5.295278 O.3       1 <1>        -0.386401 
     51 O          -7.291189    3.769151   -5.102766 O.3       1 <1>        -0.386402 
     52 C           9.430556    1.411070    2.138009 C.3       1 <1>        -0.047195 
     53 C           7.007886   -2.698868    0.096187 C.3       1 <1>        -0.056020 
     54 O          -5.597109    3.678440    5.644608 O.3       1 <1>        -0.386488 
     55 O          -9.693798    3.486370   -3.685820 O.3       1 <1>        -0.386579 
     56 C           0.683525   -3.660972   -3.471723 C.3       1 <1>         0.052209 
     57 C           4.246197   -4.011918    1.483777 C.3       1 <1>        -0.058408 
     58 O           7.545072   -1.520513    4.405532 O.3       1 <1>        -0.391131 
     59 C           1.266621   -3.181937    1.227166 C.3       1 <1>        -0.058736 
     60 C          -0.256602   -4.438699   -1.297257 C.3       1 <1>        -0.054821 
     61 C          -6.697289    4.975506    3.051328 C.3       1 <1>         0.073015 
     62 O           1.232565   -4.989974   -3.579262 O.3       1 <1>        -0.394374 
     63 O          -7.788401    5.054890    2.114013 O.3       1 <1>        -0.392366 
     64 C          -7.472313    2.965931   -0.607081 C.3       1 <1>        -0.036060 
     65 C           8.698005    3.735279    1.319216 C.3       1 <1>        -0.059801 
     66 C           9.727187    2.082973   -0.276994 C.3       1 <1>        -0.059801 
     67 H          -7.840740   -0.302738   -3.035286 H         1 <1>         0.093751 
     68 H           7.992235   -0.305977    0.516711 H         1 <1>         0.033899 
     69 H          -2.228916   -0.388779   -3.066556 H         1 <1>         0.093750 
     70 H           3.178161   -1.268627    1.499004 H         1 <1>         0.035379 
     71 H          -5.945190   -1.216516   -1.723160 H         1 <1>         0.065052 
     72 H          -8.542383    1.430806   -4.627411 H         1 <1>         0.067095 
     73 H          -4.197649   -2.722581   -3.172403 H         1 <1>         0.067095 
     74 H          -4.580617    0.206068   -4.053138 H         1 <1>         0.064768 
     75 H           2.222301   -2.067984   -2.000053 H         1 <1>         0.031301 
     76 H          -3.412899    1.819845    2.678111 H         1 <1>         0.067095 
     77 H          -6.332427    3.147806   -3.367829 H         1 <1>         0.064757 
     78 H          -5.639286    1.235472    4.718849 H         1 <1>         0.064758 
     79 H          -6.322403    1.007496    2.126323 H         1 <1>         0.093741 
     80 H           5.360633    0.620810   -1.062278 H         1 <1>         0.059762 
     81 H          -3.724206    0.910880   -1.591344 H         1 <1>         0.064687 
     82 H          -4.273265    3.897686    4.026165 H         1 <1>         0.064673 
     83 H          -8.266445    4.576680   -2.637240 H         1 <1>         0.064584 
     84 H           3.266099   -0.251488   -1.330040 H         1 <1>         0.057297 
     85 H           6.607643   -3.340737    2.642338 H         1 <1>         0.029668 
     86 H           5.440385   -2.097679    3.117721 H         1 <1>         0.029668 
     87 H          -7.176391    2.929260    3.527979 H         1 <1>         0.064668 
     88 H           8.450416   -1.740971    2.566534 H         1 <1>         0.059965 
     89 H           0.030736   -1.218594   -2.628465 H         1 <1>         0.060308 
     90 H           5.553871    0.075400    4.001397 H         1 <1>         0.056652 
     91 H           5.716705    1.586947    3.110351 H         1 <1>         0.056652 
     92 H          -9.515387    2.822817   -1.176981 H         1 <1>         0.062075 
     93 H           5.082505   -4.236181   -1.026826 H         1 <1>         0.027097 
     94 H           4.738174   -2.621463   -1.657833 H         1 <1>         0.027097 
     95 H           0.693267   -0.604360    1.091374 H         1 <1>         0.027158 
     96 H           1.223992   -0.167989   -0.525765 H         1 <1>         0.027158 
     97 H           3.174994   -4.179962   -2.474388 H         1 <1>         0.026847 
     98 H           2.726768   -4.836601   -0.915969 H         1 <1>         0.026847 
     99 H           8.896011    0.516301    4.048819 H         1 <1>         0.027239 
    100 H           7.956850    1.943860    3.615855 H         1 <1>         0.027239 
    101 H           7.196268    1.804286   -0.458238 H         1 <1>         0.027428 
    102 H           6.573199    2.298638    1.106423 H         1 <1>         0.027428 
    103 H          -5.215145   -0.670277    0.566865 H         1 <1>         0.058744 
    104 H          -3.561655   -0.016570    0.774952 H         1 <1>         0.058744 
    105 H          -1.075748   -0.351435   -0.644219 H         1 <1>         0.029048 
    106 H          -1.187558   -1.946502    0.085120 H         1 <1>         0.029048 
    107 H          -6.574369    1.648558   -5.917644 H         1 <1>         0.210110 
    108 H          -3.859471   -2.363764   -5.509998 H         1 <1>         0.210110 
    109 H          -3.461916   -0.333028    3.743086 H         1 <1>         0.210110 
    110 H          -5.959707   -1.296232   -5.248210 H         1 <1>         0.210005 
    111 H          -3.885862    1.952359    6.170064 H         1 <1>         0.210005 
    112 H          -7.167901    4.705879   -4.986598 H         1 <1>         0.210005 
    113 H          10.239647    2.000055    2.600487 H         1 <1>         0.027062 
    114 H           9.888720    0.476653    1.775287 H         1 <1>         0.027062 
    115 H           6.950667   -2.349809   -0.944487 H         1 <1>         0.023625 
    116 H           8.024822   -2.490845    0.443609 H         1 <1>         0.023625 
    117 H           6.962217   -3.795444    0.114279 H         1 <1>         0.023625 
    118 H          -5.740432    4.609079    5.777988 H         1 <1>         0.210004 
    119 H         -10.452426    3.803028   -3.205677 H         1 <1>         0.210002 
    120 H           1.327208   -2.939774   -4.002581 H         1 <1>         0.056334 
    121 H          -0.289640   -3.673202   -3.992228 H         1 <1>         0.056334 
    122 H           5.147080   -4.639800    1.492801 H         1 <1>         0.023543 
    123 H           4.011459   -3.724041    2.515848 H         1 <1>         0.023543 
    124 H           3.469370   -4.709294    1.179992 H         1 <1>         0.023543 
    125 H           7.703662   -2.406841    4.715910 H         1 <1>         0.209802 
    126 H           1.782353   -3.032878    2.184363 H         1 <1>         0.023534 
    127 H           0.213553   -3.015117    1.478626 H         1 <1>         0.023534 
    128 H           1.337445   -4.238598    0.951970 H         1 <1>         0.023534 
    129 H           0.407021   -5.306453   -1.180534 H         1 <1>         0.023667 
    130 H          -0.684542   -4.198314   -0.320364 H         1 <1>         0.023667 
    131 H          -1.103060   -4.760622   -1.923226 H         1 <1>         0.023667 
    132 H          -7.035878    5.408082    4.006058 H         1 <1>         0.058370 
    133 H          -5.829424    5.548279    2.683521 H         1 <1>         0.058370 
    134 H           1.355489   -5.281689   -4.478076 H         1 <1>         0.209420 
    135 H          -8.075775    5.946953    1.941515 H         1 <1>         0.209508 
    136 H          -7.638333    3.979738   -0.213591 H         1 <1>         0.025536 
    137 H          -7.567748    2.249306    0.221115 H         1 <1>         0.025536 
    138 H          -6.447072    2.930232   -0.995120 H         1 <1>         0.025536 
    139 H           9.698647    4.156592    1.501075 H         1 <1>         0.023499 
    140 H           8.237229    4.294939    0.490469 H         1 <1>         0.023499 
    141 H           8.090507    3.902308    2.220516 H         1 <1>         0.023499 
    142 H           9.771973    1.040911   -0.628001 H         1 <1>         0.023499 
    143 H           9.375199    2.707608   -1.112568 H         1 <1>         0.023499 
    144 H          10.749075    2.403177   -0.020847 H         1 <1>         0.023499 
@<TRIPOS>BOND
     1    1    2 1    
     2    3    1 1    
     3    1   30 1    
     4    1   53 1    
     5    2    7 1    
     6    2   21 1    
     7   25    2 1    
     8    9    3 1    
     9   37    3 1    
    10    3   57 1    
    11    7    4 1    
    12   32    4 1    
    13   35    4 1    
    14    4   40 1    
    15    5    9 1    
    16   14    5 1    
    17   38    5 1    
    18    5   59 1    
    19    6   11 1    
    20   22    6 1    
    21    6   23 1    
    22    6   67 1    
    23    7   41 1    
    24    7   68 1    
    25    8   12 1    
    26   20    8 1    
    27    8   34 1    
    28    8   69 1    
    29    9   29 1    
    30    9   70 1    
    31   10   13 1    
    32   10   22 1    
    33   26   10 1    
    34   10   71 1    
    35   11   17 1    
    36   11   46 1    
    37   11   72 1    
    38   13   12 1    
    39   12   47 1    
    40   12   73 1    
    41   13   49 1    
    42   13   74 1    
    43   15   14 1    
    44   14   39 1    
    45   14   75 1    
    46   33   15 1    
    47   15   56 1    
    48   15   60 1    
    49   16   18 1    
    50   19   16 1    
    51   16   48 1    
    52   16   76 1    
    53   17   28 1    
    54   17   51 1    
    55   17   77 1    
    56   18   27 1    
    57   18   50 1    
    58   18   78 1    
    59   19   24 1    
    60   42   19 1    
    61   19   79 1    
    62   26   20 1    
    63   21   35 1    
    64   23   36 1    
    65   24   31 1    
    66   29   25 2    
    67   25   80 1    
    68   43   26 1    
    69   26   81 1    
    70   31   27 1    
    71   27   54 1    
    72   27   82 1    
    73   36   28 1    
    74   28   55 1    
    75   28   83 1    
    76   29   84 1    
    77   30   32 1    
    78   30   85 1    
    79   30   86 1    
    80   31   61 1    
    81   31   87 1    
    82   32   58 1    
    83   32   88 1    
    84   34   33 1    
    85   33   45 1    
    86   33   89 1    
    87   35   90 1    
    88   35   91 1    
    89   36   64 1    
    90   36   92 1    
    91   39   37 1    
    92   37   93 1    
    93   37   94 1    
    94   45   38 1    
    95   38   95 1    
    96   38   96 1    
    97   39   97 1    
    98   39   98 1    
    99   40   52 1    
   100   40   99 1    
   101   40  100 1    
   102   41   44 1    
   103   41  101 1    
   104   41  102 1    
   105   42   43 1    
   106   43  103 1    
   107   43  104 1    
   108   44   52 1    
   109   44   65 1    
   110   44   66 1    
   111   45  105 1    
   112   45  106 1    
   113   46  107 1    
   114   47  108 1    
   115   48  109 1    
   116   49  110 1    
   117   50  111 1    
   118   51  112 1    
   119   52  113 1    
   120   52  114 1    
   121   53  115 1    
   122   53  116 1    
   123   53  117 1    
   124   54  118 1    
   125   55  119 1    
   126   56   62 1    
   127   56  120 1    
   128   56  121 1    
   129   57  122 1    
   130   57  123 1    
   131   57  124 1    
   132   58  125 1    
   133   59  126 1    
   134   59  127 1    
   135   59  128 1    
   136   60  129 1    
   137   60  130 1    
   138   60  131 1    
   139   61   63 1    
   140   61  132 1    
   141   61  133 1    
   142   62  134 1    
   143   63  135 1    
   144   64  136 1    
   145   64  137 1    
   146   64  138 1    
   147   65  139 1    
   148   65  140 1    
   149   65  141 1    
   150   66  142 1    
   151   66  143 1    
   152   66  144 1    
@<TRIPOS>SUBSTRUCTURE
     1 ****       16 TEMP              0 ****  ****    0 ROOT 
@<TRIPOS>NORMAL
@<TRIPOS>FF_PBC
FORCE_FIELD_SETUP_FEATURE Force Field Setup information
v1.0  0 0.000000 0.000000 0.000000 0.000000 0.000000 0.000000 NONE 0 0 0 0 1 0 0 0 0 0 0 0 0
