@<TRIPOS>MOLECULE
MOL003993
   40    39     1     1     0
SMALL
GASTEIGER


@<TRIPOS>ATOM
      1 C          -1.425875    2.356614   -0.000131 C.3       1 <1>        -0.052673 
      2 C          -0.121414    1.513263    0.000086 C.3       1 <1>        -0.053046 
      3 C          -1.112008    3.877975    0.000063 C.3       1 <1>        -0.046385 
      4 C          -0.428387   -0.009468   -0.000119 C.3       1 <1>        -0.053057 
      5 C          -2.410954    4.728684   -0.000102 C.3       1 <1>         0.005543 
      6 C           0.878874   -0.848648    0.000115 C.3       1 <1>        -0.053057 
      7 C          -2.124413    6.211511    0.000073 C.2       1 <1>         0.130322 
      8 C           0.575803   -2.372153   -0.000118 C.3       1 <1>        -0.053057 
      9 C          -3.292642    7.163038    0.000098 C.3       1 <1>        -0.006065 
     10 O          -0.982945    6.643468    0.000198 O.2       1 <1>        -0.297704 
     11 C           1.884671   -3.208765    0.000117 C.3       1 <1>        -0.053065 
     12 C           1.584167   -4.732811   -0.000118 C.3       1 <1>        -0.053306 
     13 C           2.894640   -5.566455    0.000120 C.3       1 <1>        -0.055911 
     14 C           2.596775   -7.088527   -0.000118 C.3       1 <1>        -0.065276 
     15 H          -2.021368    2.106752   -0.893662 H         1 <1>         0.026539 
     16 H          -2.021758    2.106603    0.893151 H         1 <1>         0.026539 
     17 H           0.473817    1.764373    0.893515 H         1 <1>         0.026529 
     18 H           0.474215    1.764539   -0.892988 H         1 <1>         0.026529 
     19 H          -0.517128    4.129517    0.893882 H         1 <1>         0.026927 
     20 H          -0.516794    4.129663   -0.893463 H         1 <1>         0.026927 
     21 H          -1.023102   -0.261335   -0.893607 H         1 <1>         0.026528 
     22 H          -1.023530   -0.261505    0.893061 H         1 <1>         0.026528 
     23 H          -3.006338    4.487538   -0.894934 H         1 <1>         0.034143 
     24 H          -3.006673    4.487386    0.894474 H         1 <1>         0.034143 
     25 H           1.473418   -0.596058    0.893574 H         1 <1>         0.026528 
     26 H           1.473851   -0.595873   -0.892990 H         1 <1>         0.026528 
     27 H          -0.018311   -2.625341   -0.893640 H         1 <1>         0.026528 
     28 H          -0.018754   -2.625530    0.893071 H         1 <1>         0.026528 
     29 H          -4.257208    6.633327   -0.000191 H         1 <1>         0.030578 
     30 H          -3.239462    7.800311    0.895293 H         1 <1>         0.030578 
     31 H          -3.239165    7.800741   -0.894771 H         1 <1>         0.030578 
     32 H           2.478819   -2.955209    0.893557 H         1 <1>         0.026528 
     33 H           2.479262   -2.955018   -0.892968 H         1 <1>         0.026528 
     34 H           0.990809   -4.987912   -0.893612 H         1 <1>         0.026520 
     35 H           0.990362   -4.988104    0.893024 H         1 <1>         0.026520 
     36 H           3.490712   -5.316635    0.893755 H         1 <1>         0.026265 
     37 H           3.491159   -5.316443   -0.893167 H         1 <1>         0.026265 
     38 H           3.539118   -7.659103    0.000056 H         1 <1>         0.022978 
     39 H           2.019205   -7.367109   -0.895343 H         1 <1>         0.022978 
     40 H           2.018757   -7.367301    0.894756 H         1 <1>         0.022978 
@<TRIPOS>BOND
     1    1    2 1    
     2    1    3 1    
     3    1   15 1    
     4    1   16 1    
     5    2    4 1    
     6    2   17 1    
     7    2   18 1    
     8    3    5 1    
     9    3   19 1    
    10    3   20 1    
    11    4    6 1    
    12    4   21 1    
    13    4   22 1    
    14    5    7 1    
    15    5   23 1    
    16    5   24 1    
    17    6    8 1    
    18    6   25 1    
    19    6   26 1    
    20    7    9 1    
    21    7   10 2    
    22    8   11 1    
    23    8   27 1    
    24    8   28 1    
    25    9   29 1    
    26    9   30 1    
    27    9   31 1    
    28   11   12 1    
    29   11   32 1    
    30   11   33 1    
    31   12   13 1    
    32   12   34 1    
    33   12   35 1    
    34   13   14 1    
    35   13   36 1    
    36   13   37 1    
    37   14   38 1    
    38   14   39 1    
    39   14   40 1    
@<TRIPOS>SUBSTRUCTURE
     1 ****        1 TEMP              0 ****  ****    0 ROOT 
@<TRIPOS>NORMAL
@<TRIPOS>FF_PBC
FORCE_FIELD_SETUP_FEATURE Force Field Setup information
v1.0  0 0.000000 0.000000 0.000000 0.000000 0.000000 0.000000 NONE 0 0 0 0 1 0 0 0 0 0 0 0 0
