@<TRIPOS>MOLECULE
MOL004632
   80    84     1     1     0
SMALL
GASTEIGER


@<TRIPOS>ATOM
      1 C          -3.880789   -1.546902   -3.183819 C.3       1 <1>         0.006971 
      2 C          -4.651271   -2.339354   -2.168153 C.2       1 <1>         0.141663 
      3 C          -3.862657   -3.187383   -1.192367 C.3       1 <1>         0.052468 
      4 C          -2.498414   -2.458835   -0.875903 C.3       1 <1>        -0.021125 
      5 C          -2.509981   -0.891460   -1.017578 C.3       1 <1>        -0.024554 
      6 C          -2.898093   -0.545862   -2.507488 C.3       1 <1>        -0.040370 
      7 C          -1.867071   -2.924140    0.467955 C.3       1 <1>        -0.048227 
      8 C          -0.436170   -2.349796    0.674312 C.3       1 <1>        -0.046549 
      9 C          -0.320282   -0.788890    0.602313 C.3       1 <1>        -0.023070 
     10 C          -1.048725   -0.334906   -0.728063 C.3       1 <1>        -0.029419 
     11 C           1.228059   -0.353016    0.569679 C.3       1 <1>        -0.023246 
     12 C           1.237576    1.219079    0.453211 C.3       1 <1>        -0.030772 
     13 C           0.608063    1.682173   -0.888178 C.3       1 <1>        -0.049114 
     14 C          -0.864539    1.197130   -1.009275 C.3       1 <1>        -0.048916 
     15 C           2.033920   -0.814696    1.853984 C.3       1 <1>        -0.045876 
     16 C           3.426773   -0.137175    2.045804 C.3       1 <1>        -0.037524 
     17 C           3.237546    1.401944    2.065557 C.3       1 <1>         0.059584 
     18 C           2.640188    1.849707    0.706164 C.3       1 <1>        -0.016530 
     19 C           4.541339    2.236809    2.082104 C.3       1 <1>        -0.037496 
     20 C           4.029593    3.642391    1.660796 C.3       1 <1>        -0.045260 
     21 C           2.773169    3.399322    0.762844 C.3       1 <1>        -0.016314 
     22 C          -3.624319   -4.580110   -1.862138 C.3       1 <1>         0.056534 
     23 O          -2.820487   -4.484523   -3.052878 O.3       1 <1>        -0.394040 
     24 C          -4.759773   -3.453661    0.062896 C.3       1 <1>        -0.050429 
     25 H          -1.792086   -2.790920   -1.654017 H         1 <1>         0.031617 
     26 C          -3.608876   -0.246155   -0.108649 C.3       1 <1>        -0.058998 
     27 O          -5.869581   -2.265064   -2.126379 O.2       1 <1>        -0.296740 
     28 H          -0.488014   -0.819384   -1.529642 H         1 <1>         0.031155 
     29 H           0.593699    1.661737    1.218770 H         1 <1>         0.030934 
     30 C           2.054709   -1.000780   -0.619219 C.3       1 <1>        -0.058792 
     31 C           2.460184    1.788256    3.314990 C.2       1 <1>         0.266102 
     32 O           1.407338    2.405993    3.305597 O.2       1 <1>        -0.264547 
     33 O           3.016834    1.404168    4.467123 O.3       1 <1>        -0.330843 
     34 C           2.880083    4.131088   -0.568796 C.2       1 <1>        -0.076310 
     35 C           2.136930    5.215710   -0.834158 C.2       1 <1>        -0.099438 
     36 C           3.861716    3.600829   -1.593640 C.3       1 <1>        -0.043768 
     37 C          -1.070302   -0.175035    1.854057 C.3       1 <1>        -0.058784 
     38 H          -4.577799   -1.011105   -3.849568 H         1 <1>         0.034190 
     39 H          -3.333296   -2.261768   -3.815653 H         1 <1>         0.034190 
     40 H          -3.347554    0.460899   -2.538328 H         1 <1>         0.027469 
     41 H          -2.021515   -0.508139   -3.175153 H         1 <1>         0.027469 
     42 H          -1.780667   -4.023733    0.463820 H         1 <1>         0.026857 
     43 H          -2.517267   -2.674404    1.313084 H         1 <1>         0.026857 
     44 H           0.158000   -2.822614   -0.117858 H         1 <1>         0.027087 
     45 H          -0.053620   -2.709141    1.642746 H         1 <1>         0.027087 
     46 H           0.603310    2.783404   -0.935390 H         1 <1>         0.026829 
     47 H           1.205879    1.339599   -1.743991 H         1 <1>         0.026829 
     48 H          -1.193227    1.459073   -2.026691 H         1 <1>         0.026837 
     49 H          -1.460905    1.816516   -0.327534 H         1 <1>         0.026837 
     50 H           2.206647   -1.902208    1.832480 H         1 <1>         0.027106 
     51 H           1.515127   -0.637496    2.799669 H         1 <1>         0.027106 
     52 H           4.138524   -0.428843    1.261182 H         1 <1>         0.027568 
     53 H           3.879954   -0.465390    2.996443 H         1 <1>         0.027568 
     54 H           3.314053    1.517366   -0.090606 H         1 <1>         0.031953 
     55 H           5.055399    2.238051    3.057189 H         1 <1>         0.027568 
     56 H           5.248161    1.853996    1.326929 H         1 <1>         0.027568 
     57 H           4.825061    4.214005    1.156337 H         1 <1>         0.027135 
     58 H           3.741845    4.208745    2.563522 H         1 <1>         0.027135 
     59 H           1.885888    3.774141    1.298882 H         1 <1>         0.034848 
     60 H          -3.123479   -5.256816   -1.150435 H         1 <1>         0.056671 
     61 H          -4.598570   -5.025223   -2.129904 H         1 <1>         0.056671 
     62 H          -2.668687   -5.323179   -3.479851 H         1 <1>         0.209434 
     63 H          -4.289882   -4.167059    0.755579 H         1 <1>         0.023990 
     64 H          -5.722239   -3.897882   -0.235371 H         1 <1>         0.023990 
     65 H          -4.986656   -2.536915    0.620034 H         1 <1>         0.023990 
     66 H          -3.574072   -0.596726    0.926844 H         1 <1>         0.023525 
     67 H          -3.529263    0.848070   -0.096053 H         1 <1>         0.023525 
     68 H          -4.619287   -0.457212   -0.481899 H         1 <1>         0.023525 
     69 H           3.062485   -0.590163   -0.712496 H         1 <1>         0.023533 
     70 H           2.219209   -2.077153   -0.477641 H         1 <1>         0.023533 
     71 H           1.645333   -0.892833   -1.626066 H         1 <1>         0.023533 
     72 H           2.499453    1.666229    5.220887 H         1 <1>         0.220226 
     73 H           2.210847    5.737269   -1.787884 H         1 <1>         0.053440 
     74 H           1.428706    5.621847   -0.112673 H         1 <1>         0.053440 
     75 H           4.794353    3.263152   -1.118779 H         1 <1>         0.027436 
     76 H           3.411616    2.757049   -2.136659 H         1 <1>         0.027436 
     77 H           4.128845    4.370493   -2.333533 H         1 <1>         0.027436 
     78 H          -1.726673   -0.888409    2.361487 H         1 <1>         0.023533 
     79 H          -0.436547    0.197147    2.660745 H         1 <1>         0.023533 
     80 H          -1.686984    0.690670    1.597042 H         1 <1>         0.023533 
@<TRIPOS>BOND
     1    1    2 1    
     2    1    6 1    
     3    1   38 1    
     4    1   39 1    
     5    2    3 1    
     6    2   27 2    
     7    3    4 1    
     8    3   22 1    
     9    3   24 1    
    10    4    5 1    
    11    4    7 1    
    12    4   25 1    
    13    5    6 1    
    14    5   10 1    
    15    5   26 1    
    16    6   40 1    
    17    6   41 1    
    18    7    8 1    
    19    7   42 1    
    20    7   43 1    
    21    8    9 1    
    22    8   44 1    
    23    8   45 1    
    24    9   10 1    
    25    9   11 1    
    26    9   37 1    
    27   10   14 1    
    28   10   28 1    
    29   11   12 1    
    30   11   15 1    
    31   11   30 1    
    32   12   13 1    
    33   12   18 1    
    34   12   29 1    
    35   13   14 1    
    36   13   46 1    
    37   13   47 1    
    38   14   48 1    
    39   14   49 1    
    40   15   16 1    
    41   15   50 1    
    42   15   51 1    
    43   16   17 1    
    44   16   52 1    
    45   16   53 1    
    46   17   18 1    
    47   17   19 1    
    48   17   31 1    
    49   18   21 1    
    50   18   54 1    
    51   19   20 1    
    52   19   55 1    
    53   19   56 1    
    54   20   21 1    
    55   20   57 1    
    56   20   58 1    
    57   21   34 1    
    58   21   59 1    
    59   22   23 1    
    60   22   60 1    
    61   22   61 1    
    62   23   62 1    
    63   24   63 1    
    64   24   64 1    
    65   24   65 1    
    66   26   66 1    
    67   26   67 1    
    68   26   68 1    
    69   30   69 1    
    70   30   70 1    
    71   30   71 1    
    72   31   32 2    
    73   31   33 1    
    74   33   72 1    
    75   34   35 2    
    76   34   36 1    
    77   35   73 1    
    78   35   74 1    
    79   36   75 1    
    80   36   76 1    
    81   36   77 1    
    82   37   78 1    
    83   37   79 1    
    84   37   80 1    
@<TRIPOS>SUBSTRUCTURE
     1 ****        1 TEMP              0 ****  ****    0 ROOT 
@<TRIPOS>NORMAL
@<TRIPOS>FF_PBC
FORCE_FIELD_SETUP_FEATURE Force Field Setup information
v1.0  0 0.000000 0.000000 0.000000 0.000000 0.000000 0.000000 NONE 0 0 0 0 1 0 0 0 0 0 0 0 0
