@<TRIPOS>MOLECULE
MOL005817
   25    25     1     1     0
SMALL
GASTEIGER


@<TRIPOS>ATOM
      1 C           1.788732   -0.749757   -0.663138 C.2       1 <1>         0.137306 
      2 C           0.584168   -0.331852    0.146625 C.3       1 <1>         0.028290 
      3 C          -0.457072    0.323657   -0.803422 C.3       1 <1>        -0.042631 
      4 C          -0.779986   -0.610525   -2.000515 C.3       1 <1>        -0.052008 
      5 C           0.512112   -0.953444   -2.788023 C.3       1 <1>        -0.046346 
      6 C           1.538642   -1.639508   -1.852100 C.3       1 <1>         0.006131 
      7 C           0.994136    0.631840    1.294498 C.3       1 <1>         0.018622 
      8 C          -0.153852    0.991106    2.120510 C.1       1 <1>        -0.101806 
      9 C          -1.098846    1.289755    2.803223 C.1       1 <1>        -0.105575 
     10 C          -2.241293    1.652656    3.632436 C.3       1 <1>        -0.002576 
     11 O           2.917178   -0.382324   -0.377512 O.2       1 <1>        -0.297085 
     12 H           0.146148   -1.240653    0.593410 H         1 <1>         0.038644 
     13 H          -0.055665    1.275317   -1.188601 H         1 <1>         0.027223 
     14 H          -1.387048    0.542188   -0.252256 H         1 <1>         0.027223 
     15 H          -1.501452   -0.114883   -2.671758 H         1 <1>         0.026558 
     16 H          -1.242752   -1.539776   -1.628672 H         1 <1>         0.026558 
     17 H           0.952301   -0.028436   -3.197047 H         1 <1>         0.026927 
     18 H           0.271630   -1.620784   -3.633049 H         1 <1>         0.026927 
     19 H           2.479472   -1.825719   -2.394781 H         1 <1>         0.034162 
     20 H           1.147704   -2.606500   -1.498381 H         1 <1>         0.034162 
     21 H           1.429886    1.556339    0.885030 H         1 <1>         0.040418 
     22 H           1.738558    0.151128    1.948732 H         1 <1>         0.040418 
     23 H          -3.067906    0.951680    3.444398 H         1 <1>         0.036152 
     24 H          -1.951810    1.601833    4.692144 H         1 <1>         0.036152 
     25 H          -2.562687    2.676364    3.388149 H         1 <1>         0.036152 
@<TRIPOS>BOND
     1    1    2 1    
     2    1    6 1    
     3    1   11 2    
     4    2    3 1    
     5    2    7 1    
     6    2   12 1    
     7    3    4 1    
     8    3   13 1    
     9    3   14 1    
    10    4    5 1    
    11    4   15 1    
    12    4   16 1    
    13    5    6 1    
    14    5   17 1    
    15    5   18 1    
    16    6   19 1    
    17    6   20 1    
    18    7    8 1    
    19    7   21 1    
    20    7   22 1    
    21    8    9 3    
    22    9   10 1    
    23   10   23 1    
    24   10   24 1    
    25   10   25 1    
@<TRIPOS>SUBSTRUCTURE
     1 ****        1 TEMP              0 ****  ****    0 ROOT 
@<TRIPOS>NORMAL
@<TRIPOS>FF_PBC
FORCE_FIELD_SETUP_FEATURE Force Field Setup information
v1.0  0 0.000000 0.000000 0.000000 0.000000 0.000000 0.000000 NONE 0 0 0 0 1 0 0 0 0 0 0 0 0
