@<TRIPOS>MOLECULE
MOL004664
   23    22     1     1     0
SMALL
GASTEIGER


@<TRIPOS>ATOM
      1 C          -1.943149   -3.438377    0.000124 C.3       1 <1>        -0.065276 
      2 C          -0.619157   -2.630579   -0.000114 C.3       1 <1>        -0.055911 
      3 C          -0.891359   -1.101604    0.000109 C.3       1 <1>        -0.053294 
      4 C           0.433654   -0.291107   -0.000138 C.3       1 <1>        -0.052604 
      5 C           0.160682    1.237974    0.000051 C.3       1 <1>        -0.044061 
      6 C           1.483684    2.050929   -0.000156 C.3       1 <1>         0.033006 
      7 C           1.246548    3.539166    0.000035 C.2       1 <1>         0.259588 
      8 O           2.349414    4.290558   -0.000085 O.3       1 <1>        -0.331267 
      9 O           0.125609    4.024006    0.000257 O.2       1 <1>        -0.265177 
     10 H          -1.728293   -4.518732   -0.000049 H         1 <1>         0.022978 
     11 H          -2.538484   -3.199962    0.895316 H         1 <1>         0.022978 
     12 H          -2.538914   -3.199767   -0.894740 H         1 <1>         0.022978 
     13 H          -0.032314   -2.901322   -0.893777 H         1 <1>         0.026265 
     14 H          -0.031889   -2.901504    0.893229 H         1 <1>         0.026265 
     15 H          -1.480862   -0.837556    0.893606 H         1 <1>         0.026520 
     16 H          -1.481278   -0.837376   -0.893059 H         1 <1>         0.026520 
     17 H           1.022390   -0.556450   -0.893714 H         1 <1>         0.026540 
     18 H           1.022797   -0.556607    0.893189 H         1 <1>         0.026540 
     19 H          -0.426905    1.505571    0.894030 H         1 <1>         0.027004 
     20 H          -0.427269    1.505715   -0.893585 H         1 <1>         0.027004 
     21 H           2.075554    1.798965   -0.893973 H         1 <1>         0.036600 
     22 H           2.075940    1.798809    0.893413 H         1 <1>         0.036600 
     23 H           2.143401    5.219050    0.000029 H         1 <1>         0.220208 
@<TRIPOS>BOND
     1    1    2 1    
     2    1   10 1    
     3    1   11 1    
     4    1   12 1    
     5    2    3 1    
     6    2   13 1    
     7    2   14 1    
     8    3    4 1    
     9    3   15 1    
    10    3   16 1    
    11    4    5 1    
    12    4   17 1    
    13    4   18 1    
    14    5    6 1    
    15    5   19 1    
    16    5   20 1    
    17    6    7 1    
    18    6   21 1    
    19    6   22 1    
    20    7    8 1    
    21    7    9 2    
    22    8   23 1    
@<TRIPOS>SUBSTRUCTURE
     1 ****        1 TEMP              0 ****  ****    0 ROOT 
@<TRIPOS>NORMAL
@<TRIPOS>FF_PBC
FORCE_FIELD_SETUP_FEATURE Force Field Setup information
v1.0  0 0.000000 0.000000 0.000000 0.000000 0.000000 0.000000 NONE 0 0 0 0 1 0 0 0 0 0 0 0 0
