@<TRIPOS>MOLECULE
MOL004598
   55    57     1     1     0
SMALL
GASTEIGER


@<TRIPOS>ATOM
      1 C          -2.257217    0.377040    0.201603 C.3       1 <1>         0.043138 
      2 O          -0.675352    4.366728    0.011269 O.3       1 <1>        -0.342934 
      3 C           0.217779    3.292771    0.043130 C.ar      1 <1>         0.136514 
      4 C          -0.299984    1.903259    0.099610 C.ar      1 <1>         0.110703 
      5 O          -1.686864    1.692640    0.112910 O.3       1 <1>        -0.345170 
      6 C           1.629046    3.530949    0.019316 C.ar      1 <1>         0.121584 
      7 C           2.567595    2.386023    0.067131 C.ar      1 <1>         0.087353 
      8 C           2.093440    1.081270    0.118636 C.ar      1 <1>         0.099185 
      9 C           0.636213    0.817778    0.134833 C.ar      1 <1>         0.002266 
     10 C           4.063811    2.566266    0.064683 C.2       1 <1>         0.223389 
     11 C           4.895776    1.353085    0.085006 C.2       1 <1>         0.154522 
     12 C           4.315605    0.143278    0.152753 C.2       1 <1>         0.124012 
     13 O           2.978919    0.001090    0.158364 O.3       1 <1>        -0.305119 
     14 O           6.231236    1.473755    0.033221 O.3       1 <1>        -0.342026 
     15 C           4.639023   -2.282719   -0.422295 C.ar      1 <1>        -0.019264 
     16 C           5.123006   -1.135589    0.227353 C.ar      1 <1>         0.013186 
     17 C           5.405075   -3.549475   -0.398353 C.ar      1 <1>         0.108841 
     18 C           6.647544   -3.611994    0.279368 C.ar      1 <1>         0.135673 
     19 C           7.151778   -2.408360    0.985268 C.ar      1 <1>         0.108841 
     20 C           6.405900   -1.213864    0.969638 C.ar      1 <1>        -0.019264 
     21 O           4.887386   -4.668088   -1.054259 O.3       1 <1>        -0.345234 
     22 C           4.391858   -5.690892   -0.175166 C.3       1 <1>         0.043137 
     23 C           7.989134   -5.149506   -0.964572 C.3       1 <1>         0.043242 
     24 O           7.396860   -4.793272    0.294985 O.3       1 <1>        -0.342951 
     25 C           9.455945   -1.813384    1.000038 C.3       1 <1>         0.043137 
     26 O           8.363997   -2.457467    1.675652 O.3       1 <1>        -0.345234 
     27 O           2.122296    4.833934   -0.052554 O.3       1 <1>        -0.344468 
     28 O           4.571057    3.676329    0.044090 O.2       1 <1>        -0.284261 
     29 C          -0.872195    4.913168   -1.301689 C.3       1 <1>         0.043243 
     30 C           2.087761    5.542527    1.195666 C.3       1 <1>         0.043165 
     31 C           6.773841    1.149031   -1.262293 C.3       1 <1>         0.043278 
     32 H          -3.351695    0.487031    0.207620 H         1 <1>         0.052871 
     33 H          -1.976400   -0.236399   -0.668172 H         1 <1>         0.052871 
     34 H          -1.954101   -0.122899    1.134372 H         1 <1>         0.052871 
     35 H           0.311149   -0.213605    0.174134 H         1 <1>         0.067039 
     36 H           3.696749   -2.251956   -0.958498 H         1 <1>         0.065085 
     37 H           6.780794   -0.357038    1.516619 H         1 <1>         0.065085 
     38 H           3.996162   -6.511150   -0.791754 H         1 <1>         0.052871 
     39 H           3.577864   -5.297096    0.453244 H         1 <1>         0.052871 
     40 H           5.188148   -6.091436    0.470643 H         1 <1>         0.052871 
     41 H           8.570172   -6.071794   -0.818703 H         1 <1>         0.052872 
     42 H           7.227158   -5.335713   -1.736203 H         1 <1>         0.052872 
     43 H           8.668754   -4.356028   -1.310847 H         1 <1>         0.052872 
     44 H          10.356969   -1.924848    1.620962 H         1 <1>         0.052871 
     45 H           9.640332   -2.286277    0.023336 H         1 <1>         0.052871 
     46 H           9.260298   -0.739853    0.853547 H         1 <1>         0.052871 
     47 H          -1.591884    5.741305   -1.225956 H         1 <1>         0.052872 
     48 H           0.070842    5.302415   -1.716197 H         1 <1>         0.052872 
     49 H          -1.282740    4.148604   -1.979824 H         1 <1>         0.052872 
     50 H           1.056628    5.643381    1.568542 H         1 <1>         0.052871 
     51 H           2.701614    5.026614    1.950506 H         1 <1>         0.052871 
     52 H           2.502638    6.547678    1.030986 H         1 <1>         0.052871 
     53 H           7.865071    1.274742   -1.203866 H         1 <1>         0.052873 
     54 H           6.386650    1.844104   -2.024481 H         1 <1>         0.052873 
     55 H           6.564863    0.116603   -1.580751 H         1 <1>         0.052873 
@<TRIPOS>BOND
     1    5    1 1    
     2    1   32 1    
     3    1   33 1    
     4    1   34 1    
     5    3    2 1    
     6    2   29 1    
     7    4    3 1    
     8    3    6 2    
     9    4    5 1    
    10    4    9 2    
    11    6    7 1    
    12    6   27 1    
    13    7    8 2    
    14    7   10 1    
    15    8    9 1    
    16    8   13 1    
    17    9   35 1    
    18   10   11 1    
    19   10   28 2    
    20   11   12 2    
    21   11   14 1    
    22   12   13 1    
    23   12   16 1    
    24   14   31 1    
    25   16   15 2    
    26   15   17 1    
    27   15   36 1    
    28   16   20 1    
    29   17   18 2    
    30   17   21 1    
    31   18   19 1    
    32   18   24 1    
    33   19   20 2    
    34   19   26 1    
    35   20   37 1    
    36   21   22 1    
    37   22   38 1    
    38   22   39 1    
    39   22   40 1    
    40   24   23 1    
    41   23   41 1    
    42   23   42 1    
    43   23   43 1    
    44   26   25 1    
    45   25   44 1    
    46   25   45 1    
    47   25   46 1    
    48   27   30 1    
    49   29   47 1    
    50   29   48 1    
    51   29   49 1    
    52   30   50 1    
    53   30   51 1    
    54   30   52 1    
    55   31   53 1    
    56   31   54 1    
    57   31   55 1    
@<TRIPOS>SUBSTRUCTURE
     1 ****        2 TEMP              0 ****  ****    0 ROOT 
@<TRIPOS>NORMAL
@<TRIPOS>FF_PBC
FORCE_FIELD_SETUP_FEATURE Force Field Setup information
v1.0  0 0.000000 0.000000 0.000000 0.000000 0.000000 0.000000 NONE 0 0 0 0 1 0 0 0 0 0 0 0 0
