@<TRIPOS>MOLECULE
MOL004890
   26    25     1     1     0
SMALL
GASTEIGER


@<TRIPOS>ATOM
      1 C           0.359505   -0.745245    0.867109 C.3       1 <1>        -0.043895 
      2 C          -0.991570   -0.034791    0.518849 C.3       1 <1>        -0.048120 
      3 C           1.545790    0.261934    0.933634 C.3       1 <1>        -0.053304 
      4 C           0.687042   -1.990314   -0.010736 C.3       1 <1>        -0.062415 
      5 C          -1.059981    0.902105   -0.730743 C.3       1 <1>        -0.046479 
      6 C           2.805832   -0.328300    1.621540 C.3       1 <1>        -0.065034 
      7 C          -0.899216    0.151201   -2.082977 C.3       1 <1>        -0.062657 
      8 C          -2.427205    1.650849   -0.735042 C.3       1 <1>        -0.062657 
      9 H           0.206832   -1.141806    1.888328 H         1 <1>         0.029813 
     10 H          -1.786784   -0.793695    0.437781 H         1 <1>         0.027034 
     11 H          -1.239695    0.594064    1.391276 H         1 <1>         0.027034 
     12 H           1.819766    0.590236   -0.081328 H         1 <1>         0.026521 
     13 H           1.231802    1.150476    1.506479 H         1 <1>         0.026521 
     14 H           1.364994   -2.673401    0.524597 H         1 <1>         0.023242 
     15 H          -0.227127   -2.553829   -0.248906 H         1 <1>         0.023242 
     16 H           1.182764   -1.714718   -0.949394 H         1 <1>         0.023242 
     17 H          -0.275987    1.674448   -0.659473 H         1 <1>         0.029557 
     18 H           3.583916    0.446673    1.709851 H         1 <1>         0.022986 
     19 H           2.559139   -0.682674    2.634692 H         1 <1>         0.022986 
     20 H           3.222200   -1.163609    1.039559 H         1 <1>         0.022986 
     21 H          -1.156353    0.811219   -2.927150 H         1 <1>         0.023233 
     22 H           0.138784   -0.168864   -2.238855 H         1 <1>         0.023233 
     23 H          -1.560121   -0.728448   -2.118003 H         1 <1>         0.023233 
     24 H          -2.489994    2.350435   -1.584434 H         1 <1>         0.023233 
     25 H          -2.557826    2.236564    0.189382 H         1 <1>         0.023233 
     26 H          -3.258224    0.932255   -0.814457 H         1 <1>         0.023233 
@<TRIPOS>BOND
     1    1    2 1    
     2    1    3 1    
     3    1    4 1    
     4    1    9 1    
     5    2    5 1    
     6    2   10 1    
     7    2   11 1    
     8    3    6 1    
     9    3   12 1    
    10    3   13 1    
    11    4   14 1    
    12    4   15 1    
    13    4   16 1    
    14    5    7 1    
    15    5    8 1    
    16    5   17 1    
    17    6   18 1    
    18    6   19 1    
    19    6   20 1    
    20    7   21 1    
    21    7   22 1    
    22    7   23 1    
    23    8   24 1    
    24    8   25 1    
    25    8   26 1    
@<TRIPOS>SUBSTRUCTURE
     1 ****        1 TEMP              0 ****  ****    0 ROOT 
@<TRIPOS>NORMAL
@<TRIPOS>FF_PBC
FORCE_FIELD_SETUP_FEATURE Force Field Setup information
v1.0  0 0.000000 0.000000 0.000000 0.000000 0.000000 0.000000 NONE 0 0 0 0 1 0 0 0 0 0 0 0 0
