@<TRIPOS>MOLECULE
MOL004916
   41    40     1     1     0
SMALL
GASTEIGER


@<TRIPOS>ATOM
      1 C          -3.455700    2.033475   -0.887898 C.3       1 <1>        -0.062665 
      2 C          -3.279884    0.490348   -0.817072 C.3       1 <1>        -0.046712 
      3 C          -1.783328    0.064160   -0.689272 C.3       1 <1>        -0.050459 
      4 C          -1.061035    0.529429    0.607778 C.3       1 <1>        -0.049976 
      5 C           0.364835   -0.083122    0.802902 C.3       1 <1>        -0.041039 
      6 C           1.341669    0.269900   -0.367567 C.3       1 <1>        -0.050218 
      7 C           1.465729   -0.845350   -1.450084 C.3       1 <1>        -0.053056 
      8 C           2.369283   -0.393278   -2.632759 C.3       1 <1>        -0.055902 
      9 C           2.485694   -1.495227   -3.719329 C.3       1 <1>        -0.065276 
     10 C           0.950085    0.363162    2.182848 C.3       1 <1>        -0.050458 
     11 C           2.072918   -0.588784    2.690428 C.3       1 <1>        -0.055661 
     12 C           2.611940   -0.137350    4.074661 C.3       1 <1>        -0.065268 
     13 C          -4.185959   -0.114836    0.292842 C.3       1 <1>        -0.062665 
     14 H          -4.510684    2.286270   -1.078688 H         1 <1>         0.023233 
     15 H          -3.154194    2.515630    0.053023 H         1 <1>         0.023233 
     16 H          -2.849305    2.450345   -1.708196 H         1 <1>         0.023233 
     17 H          -3.643029    0.078325   -1.777299 H         1 <1>         0.029548 
     18 H          -1.254753    0.480282   -1.560615 H         1 <1>         0.026785 
     19 H          -1.735724   -1.035112   -0.745941 H         1 <1>         0.026785 
     20 H          -1.678309    0.215409    1.461502 H         1 <1>         0.026802 
     21 H          -0.982328    1.626689    0.626249 H         1 <1>         0.026802 
     22 H           0.237725   -1.177232    0.850181 H         1 <1>         0.030078 
     23 H           1.019705    1.215369   -0.831377 H         1 <1>         0.026794 
     24 H           2.361544    0.440242    0.007561 H         1 <1>         0.026794 
     25 H           1.904721   -1.744294   -0.988124 H         1 <1>         0.026529 
     26 H           0.479518   -1.125393   -1.849643 H         1 <1>         0.026529 
     27 H           1.945581    0.513859   -3.094904 H         1 <1>         0.026265 
     28 H           3.378234   -0.149508   -2.259977 H         1 <1>         0.026265 
     29 H           3.111569   -1.141944   -4.553966 H         1 <1>         0.022978 
     30 H           2.945028   -2.402260   -3.297885 H         1 <1>         0.022978 
     31 H           1.492145   -1.754050   -4.116677 H         1 <1>         0.022978 
     32 H           1.320008    1.398597    2.109275 H         1 <1>         0.026785 
     33 H           0.158118    0.351555    2.948781 H         1 <1>         0.026785 
     34 H           1.665798   -1.608337    2.790417 H         1 <1>         0.026273 
     35 H           2.915716   -0.636970    1.983832 H         1 <1>         0.026273 
     36 H           3.395363   -0.831024    4.420044 H         1 <1>         0.022978 
     37 H           3.042189    0.874128    4.014770 H         1 <1>         0.022978 
     38 H           1.799913   -0.131419    4.817760 H         1 <1>         0.022978 
     39 H          -4.019303   -1.200878    0.371305 H         1 <1>         0.023233 
     40 H          -5.246297    0.054150    0.047401 H         1 <1>         0.023233 
     41 H          -3.995198    0.344643    1.273013 H         1 <1>         0.023233 
@<TRIPOS>BOND
     1    1    2 1    
     2    1   14 1    
     3    1   15 1    
     4    1   16 1    
     5    2    3 1    
     6    2   13 1    
     7    2   17 1    
     8    3    4 1    
     9    3   18 1    
    10    3   19 1    
    11    4    5 1    
    12    4   20 1    
    13    4   21 1    
    14    5    6 1    
    15    5   10 1    
    16    5   22 1    
    17    6    7 1    
    18    6   23 1    
    19    6   24 1    
    20    7    8 1    
    21    7   25 1    
    22    7   26 1    
    23    8    9 1    
    24    8   27 1    
    25    8   28 1    
    26    9   29 1    
    27    9   30 1    
    28    9   31 1    
    29   10   11 1    
    30   10   32 1    
    31   10   33 1    
    32   11   12 1    
    33   11   34 1    
    34   11   35 1    
    35   12   36 1    
    36   12   37 1    
    37   12   38 1    
    38   13   39 1    
    39   13   40 1    
    40   13   41 1    
@<TRIPOS>SUBSTRUCTURE
     1 ****        1 TEMP              0 ****  ****    0 ROOT 
@<TRIPOS>NORMAL
@<TRIPOS>FF_PBC
FORCE_FIELD_SETUP_FEATURE Force Field Setup information
v1.0  0 0.000000 0.000000 0.000000 0.000000 0.000000 0.000000 NONE 0 0 0 0 1 0 0 0 0 0 0 0 0
