@<TRIPOS>MOLECULE
MOL010947
   37    38     1     1     0
SMALL
GASTEIGER


@<TRIPOS>ATOM
      1 C           0.684688   -0.094801   -1.083350 C.3       1 <1>        -0.013231 
      2 C           1.297280    1.318617   -1.369137 C.3       1 <1>        -0.045424 
      3 C          -0.086260    2.434410    0.471565 C.3       1 <1>        -0.018397 
      4 C           0.362252    2.499037   -1.012413 C.3       1 <1>        -0.045895 
      5 C          -0.568059   -0.043008   -0.176417 C.ar      1 <1>        -0.040352 
      6 C           1.809211   -1.059492   -0.560521 C.3       1 <1>        -0.039888 
      7 C          -0.895940    1.151074    0.644165 C.ar      1 <1>        -0.041069 
      8 C           1.062073    2.495692    1.512503 C.3       1 <1>        -0.058389 
      9 C          -1.468880   -1.148062   -0.122640 C.ar      1 <1>        -0.055111 
     10 C           1.318251   -2.471012   -0.128846 C.3       1 <1>        -0.062115 
     11 C           2.928485   -1.243072   -1.629972 C.3       1 <1>        -0.062115 
     12 C          -1.979262    1.124496    1.554572 C.ar      1 <1>        -0.057801 
     13 C          -2.614333   -1.171985    0.818897 C.ar      1 <1>        -0.050163 
     14 C          -2.846133   -0.071039    1.654055 C.ar      1 <1>        -0.058555 
     15 C          -3.513848   -2.411587    0.865647 C.3       1 <1>        -0.039700 
     16 H           0.305503   -0.498336   -2.037324 H         1 <1>         0.035139 
     17 H           2.220375    1.482740   -0.793142 H         1 <1>         0.027133 
     18 H           1.576192    1.397908   -2.434083 H         1 <1>         0.027133 
     19 H          -0.747343    3.303232    0.639002 H         1 <1>         0.034620 
     20 H           0.878166    3.455917   -1.201630 H         1 <1>         0.027116 
     21 H          -0.526225    2.458756   -1.665440 H         1 <1>         0.027116 
     22 H           2.259460   -0.611160    0.341720 H         1 <1>         0.030128 
     23 H           1.715124    3.358539    1.310609 H         1 <1>         0.023554 
     24 H           1.666295    1.577730    1.503397 H         1 <1>         0.023554 
     25 H           0.638244    2.605818    2.523005 H         1 <1>         0.023554 
     26 H          -1.321748   -2.004230   -0.769076 H         1 <1>         0.062308 
     27 H           2.168091   -3.087657    0.203559 H         1 <1>         0.023251 
     28 H           0.620465   -2.411912    0.719385 H         1 <1>         0.023251 
     29 H           0.837964   -2.988117   -0.972827 H         1 <1>         0.023251 
     30 H           3.723428   -1.904125   -1.251096 H         1 <1>         0.023251 
     31 H           3.404249   -0.291633   -1.906661 H         1 <1>         0.023251 
     32 H           2.508523   -1.696310   -2.540940 H         1 <1>         0.023251 
     33 H          -2.196008    1.989151    2.172850 H         1 <1>         0.062054 
     34 H          -3.662950   -0.079948    2.367788 H         1 <1>         0.062029 
     35 H          -4.391030   -2.259712    1.512319 H         1 <1>         0.027753 
     36 H          -3.863350   -2.646451   -0.150841 H         1 <1>         0.027753 
     37 H          -2.930569   -3.261251    1.250792 H         1 <1>         0.027753 
@<TRIPOS>BOND
     1    1    2 1    
     2    1    5 1    
     3    1    6 1    
     4    1   16 1    
     5    2    4 1    
     6    2   17 1    
     7    2   18 1    
     8    4    3 1    
     9    3    7 1    
    10    3    8 1    
    11    3   19 1    
    12    4   20 1    
    13    4   21 1    
    14    5    7 1    
    15    5    9 2    
    16    6   10 1    
    17    6   11 1    
    18    6   22 1    
    19    7   12 2    
    20    8   23 1    
    21    8   24 1    
    22    8   25 1    
    23    9   13 1    
    24    9   26 1    
    25   10   27 1    
    26   10   28 1    
    27   10   29 1    
    28   11   30 1    
    29   11   31 1    
    30   11   32 1    
    31   12   14 1    
    32   12   33 1    
    33   13   14 2    
    34   13   15 1    
    35   14   34 1    
    36   15   35 1    
    37   15   36 1    
    38   15   37 1    
@<TRIPOS>SUBSTRUCTURE
     1 ****        1 TEMP              0 ****  ****    0 ROOT 
@<TRIPOS>NORMAL
@<TRIPOS>FF_PBC
FORCE_FIELD_SETUP_FEATURE Force Field Setup information
v1.0  0 0.000000 0.000000 0.000000 0.000000 0.000000 0.000000 NONE 0 0 0 0 1 0 0 0 0 0 0 0 0
