@<TRIPOS>MOLECULE
MOL002307
  100   103     1     1     0
SMALL
GASTEIGER


@<TRIPOS>ATOM
      1 C           3.317478    2.930886    3.332513 C.3       1 <1>         0.084543 
      2 C           4.139748    2.759064    2.106263 C.2       1 <1>         0.153399 
      3 C           5.138983    1.645328    2.134309 C.3       1 <1>         0.040512 
      4 C           4.300506    2.978560    4.558373 C.3       1 <1>        -0.024857 
      5 C           6.478008    2.377835    1.945178 C.3       1 <1>        -0.019268 
      6 O           4.026768    3.484729    1.128645 O.2       1 <1>        -0.295741 
      7 C           5.639281    3.758704    4.250219 C.3       1 <1>        -0.045546 
      8 C           6.519584    3.575394    2.955542 C.3       1 <1>        -0.031061 
      9 C           7.606455    2.471819    3.006985 C.3       1 <1>        -0.027735 
     10 C           8.986371    2.821121    2.387464 C.3       1 <1>        -0.059260 
     11 C           7.644285    1.379066    4.107887 C.3       1 <1>        -0.059260 
     12 C           3.670451    3.615287    5.838986 C.3       1 <1>        -0.061129 
     13 C           4.556219    0.761587    1.080202 C.2       1 <1>        -0.069584 
     14 C           3.340073    0.227450    1.286352 C.2       1 <1>        -0.015856 
     15 C           2.703838   -0.657861    0.227981 C.3       1 <1>         0.080626 
     16 O           1.730236    0.024940   -0.593867 O.3       1 <1>        -0.310721 
     17 C           2.262543    0.897743   -1.467236 C.2       1 <1>         0.262455 
     18 O           3.452101    1.174705   -1.492582 O.2       1 <1>        -0.264965 
     19 C           1.321527    1.523736   -2.469738 C.3       1 <1>         0.033209 
     20 C           0.347369    2.569184   -1.853892 C.3       1 <1>        -0.044055 
     21 C          -1.921311   -2.938685   -3.148982 C.3       1 <1>        -0.065276 
     22 C           2.567499    0.417309    2.596335 C.3       1 <1>         0.111001 
     23 C           2.211628    1.818309    3.225939 C.3       1 <1>         0.140903 
     24 O           3.288659   -0.376071    3.558391 O.3       1 <1>        -0.384421 
     25 C           2.531017    4.197036    3.137893 C.2       1 <1>        -0.066162 
     26 C           1.317014    3.947598    2.651376 C.2       1 <1>        -0.044566 
     27 C           1.040480    2.485108    2.436463 C.3       1 <1>         0.108651 
     28 C           0.266876    4.971450    2.299930 C.3       1 <1>        -0.041248 
     29 O           1.738147    1.473917    4.546346 O.3       1 <1>        -0.381453 
     30 O          -0.221484    2.092946    3.004679 O.3       1 <1>        -0.384507 
     31 C          -0.861260    1.942125   -1.101530 C.3       1 <1>        -0.052596 
     32 C          -1.979207    1.429828   -2.054828 C.3       1 <1>        -0.053045 
     33 C          -3.065146    0.541466   -1.374095 C.3       1 <1>        -0.053057 
     34 C          -3.926944    1.235275   -0.274805 C.3       1 <1>        -0.053057 
     35 C          -3.330807    1.241465    1.168389 C.3       1 <1>        -0.053057 
     36 C          -3.728359    0.042132    2.081335 C.3       1 <1>        -0.053057 
     37 C          -3.190190   -1.354803    1.656090 C.3       1 <1>        -0.053057 
     38 C          -1.634132   -1.464434    1.704017 C.3       1 <1>        -0.053057 
     39 C          -1.103232   -2.904311    1.426736 C.3       1 <1>        -0.053057 
     40 C          -1.304579   -3.417993   -0.030973 C.3       1 <1>        -0.053065 
     41 C          -0.374549   -2.727222   -1.070123 C.3       1 <1>        -0.053306 
     42 C          -0.546615   -3.279455   -2.514486 C.3       1 <1>        -0.055911 
     43 H           5.202983    1.008838    3.018573 H         1 <1>         0.042331 
     44 H           4.514444    1.950685    4.881891 H         1 <1>         0.031157 
     45 H           6.681462    2.749164    0.927596 H         1 <1>         0.031859 
     46 H           5.333275    4.816416    4.203422 H         1 <1>         0.027115 
     47 H           6.320824    3.682857    5.111631 H         1 <1>         0.027115 
     48 H           6.954320    4.509070    2.562982 H         1 <1>         0.030925 
     49 H           9.625707    3.261709    3.165799 H         1 <1>         0.023516 
     50 H           9.456855    1.898941    2.015836 H         1 <1>         0.023516 
     51 H           8.920447    3.534988    1.552945 H         1 <1>         0.023516 
     52 H           8.477487    1.603287    4.790987 H         1 <1>         0.023516 
     53 H           7.833097    0.405227    3.631575 H         1 <1>         0.023516 
     54 H           6.742657    1.297384    4.721591 H         1 <1>         0.023516 
     55 H           2.829319    3.028967    6.229194 H         1 <1>         0.023280 
     56 H           3.317316    4.640570    5.659226 H         1 <1>         0.023280 
     57 H           4.419481    3.662325    6.644720 H         1 <1>         0.023280 
     58 H           5.138775    0.587830    0.177912 H         1 <1>         0.058019 
     59 H           3.466097   -1.128866   -0.416080 H         1 <1>         0.061362 
     60 H           2.186851   -1.489620    0.729807 H         1 <1>         0.061362 
     61 H           0.783816    0.719426   -2.993324 H         1 <1>         0.036606 
     62 H           1.943513    2.037879   -3.221823 H         1 <1>         0.036606 
     63 H           0.935580    3.201404   -1.166491 H         1 <1>         0.027004 
     64 H          -0.046208    3.221649   -2.651470 H         1 <1>         0.027004 
     65 H          -1.938603   -3.263381   -4.201167 H         1 <1>         0.022978 
     66 H          -2.744340   -3.447486   -2.627410 H         1 <1>         0.022978 
     67 H          -2.098307   -1.853197   -3.119663 H         1 <1>         0.022978 
     68 H           1.580663   -0.067334    2.480279 H         1 <1>         0.067131 
     69 H           2.859439   -0.371633    4.410259 H         1 <1>         0.210347 
     70 H           2.910600    5.198389    3.334981 H         1 <1>         0.058307 
     71 H           1.100230    2.260562    1.358923 H         1 <1>         0.067047 
     72 H           0.696136    5.984971    2.284136 H         1 <1>         0.027518 
     73 H          -0.146066    4.753989    1.303164 H         1 <1>         0.027518 
     74 H          -0.547257    4.951267    3.040243 H         1 <1>         0.027518 
     75 H           1.168904    2.143380    4.911950 H         1 <1>         0.210466 
     76 H          -0.958626    2.554857    2.622331 H         1 <1>         0.210346 
     77 H          -1.294864    2.725944   -0.458877 H         1 <1>         0.026540 
     78 H          -0.495975    1.123008   -0.466698 H         1 <1>         0.026540 
     79 H          -2.464942    2.293158   -2.540893 H         1 <1>         0.026529 
     80 H          -1.527165    0.820373   -2.852170 H         1 <1>         0.026529 
     81 H          -3.751167    0.221995   -2.179270 H         1 <1>         0.026528 
     82 H          -2.588528   -0.362121   -0.979601 H         1 <1>         0.026528 
     83 H          -4.097423    2.270866   -0.612889 H         1 <1>         0.026528 
     84 H          -4.913530    0.747046   -0.220513 H         1 <1>         0.026528 
     85 H          -3.699845    2.148389    1.678547 H         1 <1>         0.026528 
     86 H          -2.243044    1.309370    1.139194 H         1 <1>         0.026528 
     87 H          -3.359742    0.246735    3.101511 H         1 <1>         0.026528 
     88 H          -4.829094   -0.002020    2.135036 H         1 <1>         0.026528 
     89 H          -3.597747   -2.095931    2.364925 H         1 <1>         0.026528 
     90 H          -3.600504   -1.601859    0.667783 H         1 <1>         0.026528 
     91 H          -1.307370   -1.172553    2.717298 H         1 <1>         0.026528 
     92 H          -1.159378   -0.767796    1.002641 H         1 <1>         0.026528 
     93 H          -1.613357   -3.592486    2.121867 H         1 <1>         0.026528 
     94 H          -0.025604   -2.941648    1.661073 H         1 <1>         0.026528 
     95 H          -1.072786   -4.496150   -0.047870 H         1 <1>         0.026528 
     96 H          -2.359198   -3.308201   -0.312229 H         1 <1>         0.026528 
     97 H          -0.532835   -1.639881   -1.094087 H         1 <1>         0.026520 
     98 H           0.669683   -2.904333   -0.764957 H         1 <1>         0.026520 
     99 H           0.235510   -2.831941   -3.151583 H         1 <1>         0.026265 
    100 H          -0.400199   -4.372247   -2.517350 H         1 <1>         0.026265 
@<TRIPOS>BOND
     1    1    2 1    
     2    1    4 1    
     3   23    1 1    
     4    1   25 1    
     5    3    2 1    
     6    2    6 2    
     7    3    5 1    
     8   13    3 1    
     9    3   43 1    
    10    4    7 1    
    11    4   12 1    
    12    4   44 1    
    13    5    8 1    
    14    5    9 1    
    15    5   45 1    
    16    8    7 1    
    17    7   46 1    
    18    7   47 1    
    19    9    8 1    
    20    8   48 1    
    21    9   10 1    
    22    9   11 1    
    23   10   49 1    
    24   10   50 1    
    25   10   51 1    
    26   11   52 1    
    27   11   53 1    
    28   11   54 1    
    29   12   55 1    
    30   12   56 1    
    31   12   57 1    
    32   14   13 2    
    33   13   58 1    
    34   15   14 1    
    35   14   22 1    
    36   16   15 1    
    37   15   59 1    
    38   15   60 1    
    39   17   16 1    
    40   17   18 2    
    41   19   17 1    
    42   20   19 1    
    43   19   61 1    
    44   19   62 1    
    45   31   20 1    
    46   20   63 1    
    47   20   64 1    
    48   42   21 1    
    49   21   65 1    
    50   21   66 1    
    51   21   67 1    
    52   22   23 1    
    53   22   24 1    
    54   22   68 1    
    55   23   27 1    
    56   23   29 1    
    57   24   69 1    
    58   26   25 2    
    59   25   70 1    
    60   27   26 1    
    61   26   28 1    
    62   27   30 1    
    63   27   71 1    
    64   28   72 1    
    65   28   73 1    
    66   28   74 1    
    67   29   75 1    
    68   30   76 1    
    69   32   31 1    
    70   31   77 1    
    71   31   78 1    
    72   33   32 1    
    73   32   79 1    
    74   32   80 1    
    75   34   33 1    
    76   33   81 1    
    77   33   82 1    
    78   35   34 1    
    79   34   83 1    
    80   34   84 1    
    81   36   35 1    
    82   35   85 1    
    83   35   86 1    
    84   37   36 1    
    85   36   87 1    
    86   36   88 1    
    87   38   37 1    
    88   37   89 1    
    89   37   90 1    
    90   39   38 1    
    91   38   91 1    
    92   38   92 1    
    93   40   39 1    
    94   39   93 1    
    95   39   94 1    
    96   41   40 1    
    97   40   95 1    
    98   40   96 1    
    99   41   42 1    
   100   41   97 1    
   101   41   98 1    
   102   42   99 1    
   103   42  100 1    
@<TRIPOS>SUBSTRUCTURE
     1 ****        1 TEMP              0 ****  ****    0 ROOT 
@<TRIPOS>NORMAL
@<TRIPOS>FF_PBC
FORCE_FIELD_SETUP_FEATURE Force Field Setup information
v1.0  0 0.000000 0.000000 0.000000 0.000000 0.000000 0.000000 NONE 0 0 0 0 1 0 0 0 0 0 0 0 0
