@<TRIPOS>MOLECULE
MOL002234
   29    30     1     1     0
SMALL
GASTEIGER


@<TRIPOS>ATOM
      1 C          -1.699542   -0.341151    1.899725 C.ar      1 <1>         0.075335 
      2 C          -1.361312   -1.508493    1.053907 C.ar      1 <1>        -0.027448 
      3 C          -0.326134   -1.439689    0.083202 C.ar      1 <1>        -0.022492 
      4 C           0.423109   -0.164763   -0.082610 C.ar      1 <1>         0.051225 
      5 C           0.096209    0.960990    0.731015 C.ar      1 <1>         0.089702 
      6 C          -0.981993    0.863395    1.739793 C.ar      1 <1>        -0.001189 
      7 C           1.539693    0.012133   -1.087689 C.2       1 <1>         0.168362 
      8 C           2.345930    1.278408   -1.047293 C.3       1 <1>         0.037070 
      9 C           1.380983    2.433203   -0.688975 C.3       1 <1>         0.069435 
     10 O           0.786469    2.168207    0.592149 O.3       1 <1>        -0.340536 
     11 C           2.128742    3.786411   -0.603550 C.3       1 <1>        -0.037780 
     12 O           1.797100   -0.837095   -1.924736 O.2       1 <1>        -0.291873 
     13 O          -2.725037   -0.459396    2.841534 O.3       1 <1>        -0.359741 
     14 C           0.007129   -2.674072   -0.768770 C.3       1 <1>         0.058945 
     15 C           1.400652   -3.161660   -0.474400 C.2       1 <1>         0.263965 
     16 O           2.029986   -2.777561    0.499677 O.2       1 <1>        -0.264813 
     17 O           1.892431   -4.049641   -1.340804 O.3       1 <1>        -0.331022 
     18 H          -1.924809   -2.423865    1.196708 H         1 <1>         0.064626 
     19 H          -1.208033    1.731566    2.348194 H         1 <1>         0.066930 
     20 H           2.823151    1.463345   -2.022680 H         1 <1>         0.037048 
     21 H           3.126555    1.178164   -0.277959 H         1 <1>         0.037048 
     22 H           0.585503    2.509408   -1.451765 H         1 <1>         0.060251 
     23 H           2.911643    3.738077    0.168596 H         1 <1>         0.025476 
     24 H           1.421002    4.586039   -0.335314 H         1 <1>         0.025476 
     25 H           2.594324    4.034590   -1.569851 H         1 <1>         0.025476 
     26 H          -2.878439    0.323788    3.358149 H         1 <1>         0.217315 
     27 H          -0.680025   -3.506017   -0.555391 H         1 <1>         0.041495 
     28 H          -0.097628   -2.421825   -1.834263 H         1 <1>         0.041495 
     29 H           2.776339   -4.313294   -1.109298 H         1 <1>         0.220218 
@<TRIPOS>BOND
     1    1    2 1    
     2    1    6 2    
     3    1   13 1    
     4    2    3 2    
     5    2   18 1    
     6    3    4 1    
     7    3   14 1    
     8    4    5 2    
     9    4    7 1    
    10    5    6 1    
    11    5   10 1    
    12    6   19 1    
    13    7    8 1    
    14    7   12 2    
    15    8    9 1    
    16    8   20 1    
    17    8   21 1    
    18    9   10 1    
    19    9   11 1    
    20    9   22 1    
    21   11   23 1    
    22   11   24 1    
    23   11   25 1    
    24   13   26 1    
    25   14   15 1    
    26   14   27 1    
    27   14   28 1    
    28   15   16 2    
    29   15   17 1    
    30   17   29 1    
@<TRIPOS>SUBSTRUCTURE
     1 ****        1 TEMP              0 ****  ****    0 ROOT 
@<TRIPOS>NORMAL
@<TRIPOS>FF_PBC
FORCE_FIELD_SETUP_FEATURE Force Field Setup information
v1.0  0 0.000000 0.000000 0.000000 0.000000 0.000000 0.000000 NONE 0 0 0 0 1 0 0 0 0 0 0 0 0
