@<TRIPOS>MOLECULE
MOL002377
   48    51     1     1     0
SMALL
GASTEIGER


@<TRIPOS>ATOM
      1 C          -2.226955    3.454409    3.793590 C.ar      1 <1>        -0.001302 
      2 C          -3.261430    3.752845    2.776147 C.ar      1 <1>         0.077519 
      3 C          -3.085048    3.314526    1.495745 C.ar      1 <1>        -0.000529 
      4 C          -1.873023    2.546808    1.126297 C.ar      1 <1>         0.099001 
      5 C          -0.935510    2.282586    2.058021 C.ar      1 <1>         0.084562 
      6 C          -1.104397    2.748004    3.457489 C.ar      1 <1>         0.088401 
      7 O          -1.724799    2.107980   -0.193740 O.3       1 <1>        -0.305122 
      8 C          -0.654353    1.422437   -0.629657 C.2       1 <1>         0.123961 
      9 C           0.340191    1.084644    0.206484 C.2       1 <1>         0.157590 
     10 C           0.272470    1.497935    1.614117 C.2       1 <1>         0.223405 
     11 O          -0.117855    2.456942    4.404902 O.3       1 <1>        -0.358954 
     12 O          -4.395708    4.478709    3.154574 O.3       1 <1>        -0.359667 
     13 O           1.389519    0.372637   -0.221814 O.3       1 <1>        -0.306082 
     14 O           1.167562    1.195602    2.387789 O.2       1 <1>        -0.284261 
     15 C          -0.649643    1.056351   -2.099936 C.ar      1 <1>         0.008305 
     16 C          -1.950220    0.757891   -2.749944 C.ar      1 <1>        -0.049598 
     17 C          -2.005202    0.417595   -4.061051 C.ar      1 <1>        -0.031302 
     18 C          -0.767867    0.330290   -4.870860 C.ar      1 <1>         0.072619 
     19 C           0.431305    0.610817   -4.287307 C.ar      1 <1>        -0.031302 
     20 C           0.495409    0.999560   -2.857640 C.ar      1 <1>        -0.049598 
     21 O          -0.861297   -0.039214   -6.216671 O.3       1 <1>        -0.359832 
     22 C           1.105787   -1.036031   -0.295699 C.3       1 <1>         0.193914 
     23 O           2.253305   -1.711278   -0.821962 O.3       1 <1>        -0.340163 
     24 C           2.158673   -3.103325   -0.464516 C.3       1 <1>         0.113101 
     25 C           1.131474   -3.184891    0.700930 C.3       1 <1>         0.114075 
     26 C           0.969802   -1.703673    1.093217 C.3       1 <1>         0.134511 
     27 O          -0.149978   -3.666330    0.244782 O.3       1 <1>        -0.386402 
     28 C           3.564426   -3.597323   -0.049696 C.3       1 <1>         0.073016 
     29 O           2.046450   -1.342662    1.983008 O.3       1 <1>        -0.384091 
     30 O           3.480640   -4.986132    0.322302 O.3       1 <1>        -0.392366 
     31 H          -2.381516    3.808704    4.806584 H         1 <1>         0.066923 
     32 H          -3.823078    3.518741    0.728295 H         1 <1>         0.066947 
     33 H          -0.305801    2.741522    5.292622 H         1 <1>         0.217342 
     34 H          -5.020035    4.647572    2.457273 H         1 <1>         0.217316 
     35 H          -2.866272    0.813383   -2.169775 H         1 <1>         0.062504 
     36 H          -2.958778    0.204336   -4.533128 H         1 <1>         0.064339 
     37 H           1.352663    0.553046   -4.857123 H         1 <1>         0.064339 
     38 H           1.461921    1.243002   -2.431833 H         1 <1>         0.062504 
     39 H          -0.041358   -0.011585   -6.697401 H         1 <1>         0.217313 
     40 H           0.236540   -1.268164   -0.936924 H         1 <1>         0.094163 
     41 H           1.803067   -3.687638   -1.328533 H         1 <1>         0.064669 
     42 H           1.480531   -3.778365    1.563896 H         1 <1>         0.064757 
     43 H          -0.008452   -1.508844    1.564764 H         1 <1>         0.067108 
     44 H          -0.125498   -4.581222   -0.020439 H         1 <1>         0.210005 
     45 H           4.252267   -3.462108   -0.901630 H         1 <1>         0.058370 
     46 H           3.923722   -2.983346    0.793569 H         1 <1>         0.058370 
     47 H           2.052108   -0.408368    2.178735 H         1 <1>         0.210111 
     48 H           4.319939   -5.348274    0.592452 H         1 <1>         0.209508 
@<TRIPOS>BOND
     1    1    2 1    
     2    1    6 2    
     3    1   31 1    
     4    2    3 2    
     5    2   12 1    
     6    3    4 1    
     7    3   32 1    
     8    4    5 2    
     9    4    7 1    
    10    5    6 1    
    11    5   10 1    
    12    6   11 1    
    13    7    8 1    
    14    8    9 2    
    15    8   15 1    
    16    9   10 1    
    17    9   13 1    
    18   10   14 2    
    19   11   33 1    
    20   12   34 1    
    21   13   22 1    
    22   15   16 1    
    23   15   20 2    
    24   16   17 2    
    25   16   35 1    
    26   17   18 1    
    27   17   36 1    
    28   18   19 2    
    29   18   21 1    
    30   19   20 1    
    31   19   37 1    
    32   20   38 1    
    33   21   39 1    
    34   22   23 1    
    35   22   26 1    
    36   22   40 1    
    37   23   24 1    
    38   24   25 1    
    39   24   28 1    
    40   24   41 1    
    41   25   26 1    
    42   25   27 1    
    43   25   42 1    
    44   26   29 1    
    45   26   43 1    
    46   27   44 1    
    47   28   30 1    
    48   28   45 1    
    49   28   46 1    
    50   29   47 1    
    51   30   48 1    
@<TRIPOS>SUBSTRUCTURE
     1 ****        1 TEMP              0 ****  ****    0 ROOT 
@<TRIPOS>NORMAL
@<TRIPOS>FF_PBC
FORCE_FIELD_SETUP_FEATURE Force Field Setup information
v1.0  0 0.000000 0.000000 0.000000 0.000000 0.000000 0.000000 NONE 0 0 0 0 1 0 0 0 0 0 0 0 0
