@<TRIPOS>MOLECULE
MOL008056
   35    35     1     1     0
SMALL
GASTEIGER


@<TRIPOS>ATOM
      1 C          -3.196103   -2.839680    1.746014 C.2       1 <1>         0.286346 
      2 C          -3.070500   -1.760426    2.741239 C.2       1 <1>         0.010482 
      3 C          -2.442162   -0.583082    2.609912 C.2       1 <1>        -0.048916 
      4 O          -4.107661   -3.642283    1.876057 O.2       1 <1>        -0.259888 
      5 O          -2.312331   -2.936373    0.742406 O.3       1 <1>        -0.315197 
      6 C          -1.766850   -0.072465    1.355148 C.ar      1 <1>        -0.024020 
      7 C          -0.492505    0.672860    1.495258 C.ar      1 <1>        -0.041290 
      8 C           0.179312    1.203498    0.372435 C.ar      1 <1>         0.051871 
      9 C          -0.391947    0.991851   -0.981487 C.ar      1 <1>         0.083398 
     10 C          -1.608799    0.272421   -1.118236 C.ar      1 <1>        -0.030682 
     11 C          -2.312855   -0.256448    0.073330 C.ar      1 <1>        -0.052121 
     12 C           1.459651    1.985382    0.583149 C.2       1 <1>         0.188484 
     13 C           2.311239    2.454017   -0.521905 C.2       1 <1>        -0.015543 
     14 C           2.967316    1.674144   -1.394949 C.2       1 <1>        -0.072078 
     15 C           3.813950    2.263749   -2.502496 C.3       1 <1>        -0.043641 
     16 O           1.812187    2.266947    1.717326 O.2       1 <1>        -0.287194 
     17 C           2.929531    0.163903   -1.337070 C.3       1 <1>        -0.043641 
     18 O           0.266921    1.506843   -2.101448 O.3       1 <1>        -0.359123 
     19 C          -2.585973   -4.008940   -0.181259 C.3       1 <1>         0.046178 
     20 H          -3.546940   -1.970556    3.699596 H         1 <1>         0.067735 
     21 H          -2.405184    0.079265    3.476985 H         1 <1>         0.062525 
     22 H          -0.078505    0.811624    2.487728 H         1 <1>         0.063128 
     23 H          -2.038497    0.108441   -2.100876 H         1 <1>         0.064358 
     24 H          -3.257057   -0.773556   -0.055652 H         1 <1>         0.062423 
     25 H           2.394568    3.537923   -0.585203 H         1 <1>         0.065525 
     26 H           3.485698    1.876554   -3.479882 H         1 <1>         0.027438 
     27 H           3.762707    3.362975   -2.537373 H         1 <1>         0.027438 
     28 H           4.863083    1.974607   -2.340893 H         1 <1>         0.027438 
     29 H           2.355574   -0.227215   -0.485463 H         1 <1>         0.027438 
     30 H           3.958749   -0.212474   -1.246566 H         1 <1>         0.027438 
     31 H           2.488634   -0.231931   -2.264331 H         1 <1>         0.027438 
     32 H          -0.029899    1.145729   -2.928931 H         1 <1>         0.217340 
     33 H          -1.798191   -4.002383   -0.949397 H         1 <1>         0.052972 
     34 H          -2.571917   -4.989248    0.323082 H         1 <1>         0.052972 
     35 H          -3.559137   -3.862421   -0.678442 H         1 <1>         0.052972 
@<TRIPOS>BOND
     1    1    2 1    
     2    1    4 2    
     3    1    5 1    
     4    2    3 2    
     5    2   20 1    
     6    3    6 1    
     7    3   21 1    
     8    5   19 1    
     9    6    7 1    
    10    6   11 2    
    11    7    8 2    
    12    7   22 1    
    13    8    9 1    
    14    8   12 1    
    15    9   10 2    
    16    9   18 1    
    17   10   11 1    
    18   10   23 1    
    19   11   24 1    
    20   12   13 1    
    21   12   16 2    
    22   13   14 2    
    23   13   25 1    
    24   14   15 1    
    25   14   17 1    
    26   15   26 1    
    27   15   27 1    
    28   15   28 1    
    29   17   29 1    
    30   17   30 1    
    31   17   31 1    
    32   18   32 1    
    33   19   33 1    
    34   19   34 1    
    35   19   35 1    
@<TRIPOS>SUBSTRUCTURE
     1 ****        1 TEMP              0 ****  ****    0 ROOT 
@<TRIPOS>NORMAL
@<TRIPOS>FF_PBC
FORCE_FIELD_SETUP_FEATURE Force Field Setup information
v1.0  0 0.000000 0.000000 0.000000 0.000000 0.000000 0.000000 NONE 0 0 0 0 1 0 0 0 0 0 0 0 0
