@<TRIPOS>MOLECULE
MOL003561
   28    30     1     1     0
SMALL
GASTEIGER


@<TRIPOS>ATOM
      1 C          -0.809302    1.086055   -0.006610 C.ar      1 <1>         0.135233 
      2 C          -1.132154   -0.374339    0.057694 C.ar      1 <1>         0.039456 
      3 C           0.520974    1.557394   -0.083987 C.ar      1 <1>         0.213004 
      4 O          -1.825998    2.044676    0.008438 O.3       1 <1>        -0.270767 
      5 C          -0.040900   -1.313920    0.038872 C.ar      1 <1>         0.101981 
      6 C          -2.609571   -0.702450    0.137545 C.2       1 <1>        -0.043852 
      7 C           1.625470    0.570982   -0.103053 C.ar      1 <1>         0.397414 
      8 O           0.757292    2.938890   -0.139971 O.3       1 <1>        -0.338087 
      9 C          -3.109252    1.695803    0.080722 C.2       1 <1>         0.291660 
     10 C           1.323649   -0.759719   -0.044208 C.ar      1 <1>         0.120376 
     11 O          -0.140064   -2.711600    0.091826 O.3       1 <1>        -0.346337 
     12 C          -3.509133    0.285482    0.146647 C.2       1 <1>         0.011034 
     13 O           2.986700    0.796892   -0.174851 O.2       1 <1>        -0.209446 
     14 C           2.089858    3.474811   -0.188437 C.3       1 <1>         0.043450 
     15 O          -3.961874    2.567549    0.091985 O.2       1 <1>        -0.259478 
     16 C           2.609587   -1.464258   -0.081455 C.ar      1 <1>         0.053324 
     17 C          -1.287281   -3.565383    0.183431 C.3       1 <1>         0.043082 
     18 C           3.547146   -0.463648   -0.159448 C.ar      1 <1>         0.322844 
     19 H          -3.041009   -1.693475    0.190641 H         1 <1>         0.062688 
     20 H          -4.578563    0.073972    0.203868 H         1 <1>         0.067749 
     21 H           2.007432    4.571752   -0.215874 H         1 <1>         0.052875 
     22 H           2.663621    3.194298    0.708182 H         1 <1>         0.052875 
     23 H           2.618312    3.146549   -1.096505 H         1 <1>         0.052875 
     24 H           2.774998   -2.536331   -0.053366 H         1 <1>         0.071424 
     25 H          -0.909908   -4.598507    0.205819 H         1 <1>         0.052870 
     26 H          -1.841093   -3.396694    1.118947 H         1 <1>         0.052870 
     27 H          -1.931738   -3.469867   -0.703020 H         1 <1>         0.052870 
     28 H           4.618615   -0.642757   -0.204395 H         1 <1>         0.176013 
@<TRIPOS>BOND
     1    1    2 1    
     2    1    3 2    
     3    1    4 1    
     4    2    5 2    
     5    2    6 1    
     6    3    7 1    
     7    3    8 1    
     8    4    9 1    
     9    5   10 1    
    10    5   11 1    
    11    6   12 2    
    12    6   19 1    
    13    7   10 2    
    14    7   13 1    
    15    8   14 1    
    16    9   12 1    
    17    9   15 2    
    18   10   16 1    
    19   11   17 1    
    20   12   20 1    
    21   13   18 1    
    22   14   21 1    
    23   14   22 1    
    24   14   23 1    
    25   16   18 2    
    26   16   24 1    
    27   17   25 1    
    28   17   26 1    
    29   17   27 1    
    30   18   28 1    
@<TRIPOS>SUBSTRUCTURE
     1 ****        1 TEMP              0 ****  ****    0 ROOT 
@<TRIPOS>NORMAL
@<TRIPOS>FF_PBC
FORCE_FIELD_SETUP_FEATURE Force Field Setup information
v1.0  0 0.000000 0.000000 0.000000 0.000000 0.000000 0.000000 NONE 0 0 0 0 1 0 0 0 0 0 0 0 0
