@<TRIPOS>MOLECULE
MOL000479
   39    38     1     1     0
SMALL
GASTEIGER


@<TRIPOS>ATOM
      1 C           6.607649    1.411658   -0.002969 C.2       1 <1>        -0.098452 
      2 C           5.378385    0.877002    0.007810 C.2       1 <1>        -0.066221 
      3 C           5.018997   -0.567621    0.009154 C.2       1 <1>        -0.054697 
      4 C           3.569674   -1.027861    0.015546 C.3       1 <1>        -0.024807 
      5 C           2.453579    0.051414    0.015174 C.3       1 <1>        -0.030545 
      6 C           1.073288   -0.565930    0.014125 C.2       1 <1>        -0.084708 
      7 C          -0.080632    0.123805   -0.021461 C.2       1 <1>        -0.076231 
      8 C          -1.399201   -0.633170   -0.032589 C.3       1 <1>        -0.028563 
      9 C          -2.691987    0.177449    0.273534 C.3       1 <1>        -0.030848 
     10 C          -3.923623   -0.702018    0.242396 C.2       1 <1>        -0.084989 
     11 C          -5.173202   -0.263413    0.015298 C.2       1 <1>        -0.079608 
     12 C          -6.337064   -1.230146   -0.044758 C.3       1 <1>        -0.044049 
     13 C           5.946946   -1.537740    0.005018 C.2       1 <1>        -0.095504 
     14 C          -5.507251    1.196186   -0.204127 C.3       1 <1>        -0.044049 
     15 C          -0.145531    1.634884   -0.064069 C.3       1 <1>        -0.043778 
     16 H           6.743233    2.494571   -0.002501 H         1 <1>         0.053489 
     17 H           7.527827    0.833841   -0.012671 H         1 <1>         0.053489 
     18 H           4.577744    1.614935    0.016260 H         1 <1>         0.061433 
     19 H           3.418466   -1.659116   -0.876498 H         1 <1>         0.031595 
     20 H           3.424261   -1.654366    0.911777 H         1 <1>         0.031595 
     21 H           2.553146    0.677326    0.916409 H         1 <1>         0.031053 
     22 H           2.558339    0.669513   -0.890846 H         1 <1>         0.031053 
     23 H           1.011180   -1.653769    0.039652 H         1 <1>         0.057163 
     24 H          -1.511106   -1.089650   -1.030068 H         1 <1>         0.031285 
     25 H          -1.335364   -1.444556    0.711331 H         1 <1>         0.031285 
     26 H          -2.625608    0.622956    1.278507 H         1 <1>         0.031044 
     27 H          -2.791524    0.975708   -0.477220 H         1 <1>         0.031044 
     28 H          -3.767348   -1.766860    0.415781 H         1 <1>         0.057155 
     29 H          -7.188227   -0.857108    0.544224 H         1 <1>         0.027427 
     30 H          -6.653314   -1.335689   -1.093714 H         1 <1>         0.027427 
     31 H          -6.079526   -2.228268    0.342382 H         1 <1>         0.027427 
     32 H           5.646005   -2.586127    0.005865 H         1 <1>         0.053749 
     33 H           7.019994   -1.367528    0.000846 H         1 <1>         0.053749 
     34 H          -6.534665    1.425845    0.112712 H         1 <1>         0.027427 
     35 H          -4.844405    1.863772    0.367412 H         1 <1>         0.027427 
     36 H          -5.419027    1.430771   -1.275589 H         1 <1>         0.027427 
     37 H           0.836548    2.124076   -0.050714 H         1 <1>         0.027436 
     38 H          -0.654833    1.950579   -0.985299 H         1 <1>         0.027436 
     39 H          -0.701925    2.014752    0.803781 H         1 <1>         0.027436 
@<TRIPOS>BOND
     1    1    2 2    
     2    1   16 1    
     3    1   17 1    
     4    2    3 1    
     5    2   18 1    
     6    3    4 1    
     7    3   13 2    
     8    4    5 1    
     9    4   19 1    
    10    4   20 1    
    11    5    6 1    
    12    5   21 1    
    13    5   22 1    
    14    6    7 2    
    15    6   23 1    
    16    7    8 1    
    17    7   15 1    
    18    8    9 1    
    19    8   24 1    
    20    8   25 1    
    21    9   10 1    
    22    9   26 1    
    23    9   27 1    
    24   10   11 2    
    25   10   28 1    
    26   11   12 1    
    27   11   14 1    
    28   12   29 1    
    29   12   30 1    
    30   12   31 1    
    31   13   32 1    
    32   13   33 1    
    33   14   34 1    
    34   14   35 1    
    35   14   36 1    
    36   15   37 1    
    37   15   38 1    
    38   15   39 1    
@<TRIPOS>SUBSTRUCTURE
     1 ****        1 TEMP              0 ****  ****    0 ROOT 
@<TRIPOS>NORMAL
@<TRIPOS>FF_PBC
FORCE_FIELD_SETUP_FEATURE Force Field Setup information
v1.0  0 0.000000 0.000000 0.000000 0.000000 0.000000 0.000000 NONE 0 0 0 0 1 0 0 0 0 0 0 0 0
