@<TRIPOS>MOLECULE
MOL002260
   83    89     1     1     0
SMALL
GASTEIGER


@<TRIPOS>ATOM
      1 C          -2.877948    2.047680   -2.005366 C.ar      1 <1>        -0.001717 
      2 C          -1.749542    1.367962   -2.302437 C.ar      1 <1>         0.081305 
      3 C          -0.544920    2.100397   -2.776598 C.ar      1 <1>         0.022530 
      4 C          -0.609953    3.462010   -2.938392 C.ar      1 <1>         0.085799 
      5 C          -1.857415    4.187285   -2.605926 C.ar      1 <1>        -0.001429 
      6 C          -2.939375    3.522714   -2.160686 C.ar      1 <1>         0.077481 
      7 C           0.744696    1.326249   -3.062266 C.3       1 <1>         0.047693 
      8 C           1.961085    2.263377   -3.215482 C.3       1 <1>         0.096985 
      9 C           1.552350    3.484912   -4.070670 C.3       1 <1>         0.116901 
     10 O           0.486819    4.188945   -3.408822 O.3       1 <1>        -0.333821 
     11 C           1.284358    3.104552   -5.538726 C.ar      1 <1>        -0.013308 
     12 O           3.039971    1.500958   -3.788322 O.3       1 <1>        -0.387932 
     13 C           2.446722    2.959516   -6.450743 C.ar      1 <1>        -0.023672 
     14 C           2.283073    2.645470   -7.753591 C.ar      1 <1>         0.102526 
     15 C           0.920979    2.430078   -8.304269 C.ar      1 <1>         0.102203 
     16 C          -0.155563    2.555136   -7.478038 C.ar      1 <1>        -0.029067 
     17 C           0.031716    2.906126   -6.047308 C.ar      1 <1>        -0.053426 
     18 O           0.774788    2.105394   -9.660092 O.3       1 <1>        -0.357275 
     19 O           3.407496    2.529091   -8.569341 O.3       1 <1>        -0.357268 
     20 O          -1.732131   -0.018835   -2.156402 O.3       1 <1>        -0.359375 
     21 C           0.875660    0.879734   -0.513827 C.ar      1 <1>         0.084555 
     22 C           1.057468    0.048233    0.557369 C.ar      1 <1>         0.015282 
     23 C           1.393928   -1.379452    0.332145 C.ar      1 <1>         0.085226 
     24 C           1.558217   -1.836413   -0.931495 C.ar      1 <1>        -0.001160 
     25 C           1.380621   -0.937011   -2.096875 C.ar      1 <1>         0.081322 
     26 C           1.019243    0.363210   -1.898211 C.ar      1 <1>         0.022511 
     27 O           0.552429    2.224189   -0.321564 O.3       1 <1>        -0.359102 
     28 O           1.575610   -1.437528   -3.382197 O.3       1 <1>        -0.359374 
     29 C           0.911835    0.573393    1.986234 C.3       1 <1>         0.006993 
     30 C           0.688609   -0.583748    2.983761 C.3       1 <1>         0.103160 
     31 C           1.749262   -1.677665    2.707198 C.3       1 <1>         0.117183 
     32 O           1.528711   -2.261504    1.410012 O.3       1 <1>        -0.333834 
     33 O           0.861495   -0.036606    4.313601 O.3       1 <1>        -0.304822 
     34 C           1.652030   -2.769050    3.779998 C.ar      1 <1>        -0.013302 
     35 C           2.624928   -2.787552    4.900978 C.ar      1 <1>        -0.053426 
     36 C           2.549141   -3.735108    5.862077 C.ar      1 <1>        -0.029067 
     37 C           1.491296   -4.770032    5.808548 C.ar      1 <1>         0.102203 
     38 C           0.587926   -4.766334    4.778823 C.ar      1 <1>         0.102526 
     39 C           0.679301   -3.725384    3.722247 C.ar      1 <1>        -0.023672 
     40 C           0.160922   -0.641873    5.284225 C.2       1 <1>         0.294326 
     41 C          -1.287148   -1.054332    5.127982 C.ar      1 <1>         0.051505 
     42 O           0.700328   -0.840327    6.357811 O.2       1 <1>        -0.259213 
     43 C          -2.188327   -0.256223    4.261043 C.ar      1 <1>        -0.016369 
     44 C          -3.474845   -0.618358    4.083890 C.ar      1 <1>         0.105520 
     45 C          -4.010792   -1.809275    4.796958 C.ar      1 <1>         0.132457 
     46 C          -3.194609   -2.532339    5.623642 C.ar      1 <1>         0.105520 
     47 C          -1.770567   -2.144266    5.788469 C.ar      1 <1>        -0.016369 
     48 O          -4.287641    0.136856    3.237368 O.3       1 <1>        -0.357199 
     49 O          -5.347840   -2.167395    4.617409 O.3       1 <1>        -0.355395 
     50 O          -3.713585   -3.633630    6.309032 O.3       1 <1>        -0.357199 
     51 O           1.434537   -5.739047    6.813555 O.3       1 <1>        -0.357275 
     52 O          -0.407270   -5.749763    4.745958 O.3       1 <1>        -0.357268 
     53 H           0.572943    0.799231   -4.011997 H         1 <1>         0.042671 
     54 O          -4.104650    4.229695   -1.852689 O.3       1 <1>        -0.359667 
     55 H          -3.743940    1.500279   -1.653509 H         1 <1>         0.066912 
     56 H          -1.898615    5.265190   -2.718311 H         1 <1>         0.066920 
     57 H           2.241102    2.640153   -2.217518 H         1 <1>         0.063210 
     58 H           2.394583    4.194970   -4.085230 H         1 <1>         0.067783 
     59 H           3.855432    1.988257   -3.843318 H         1 <1>         0.209941 
     60 H           3.450936    3.110804   -6.070992 H         1 <1>         0.064760 
     61 H          -1.161166    2.402836   -7.854908 H         1 <1>         0.064413 
     62 H          -0.846494    3.004320   -5.422770 H         1 <1>         0.062193 
     63 H          -0.122105    1.980475   -9.950656 H         1 <1>         0.217422 
     64 H           3.155755    2.305776   -9.459326 H         1 <1>         0.217422 
     65 H          -1.413130   -0.457728   -2.937646 H         1 <1>         0.217328 
     66 H           1.815170   -2.876117   -1.090283 H         1 <1>         0.066929 
     67 H           1.146609    2.675589    0.268140 H         1 <1>         0.217339 
     68 H           2.286803   -0.976405   -3.815810 H         1 <1>         0.217328 
     69 H           1.832696    1.114284    2.250671 H         1 <1>         0.034098 
     70 H           0.061766    1.269604    2.046147 H         1 <1>         0.034098 
     71 H          -0.290584   -1.034347    2.761487 H         1 <1>         0.063499 
     72 H           2.759431   -1.235041    2.723554 H         1 <1>         0.067789 
     73 H           3.402536   -2.033094    4.948851 H         1 <1>         0.062193 
     74 H           3.261780   -3.748903    6.681228 H         1 <1>         0.064413 
     75 H          -0.029543   -3.720834    2.899746 H         1 <1>         0.064760 
     76 H          -1.817527    0.633568    3.759365 H         1 <1>         0.065181 
     77 H          -1.107930   -2.721642    6.426492 H         1 <1>         0.065181 
     78 H          -5.155538   -0.244623    3.157007 H         1 <1>         0.217423 
     79 H          -5.576469   -2.932152    5.138215 H         1 <1>         0.217501 
     80 H          -3.134419   -3.954114    6.992564 H         1 <1>         0.217423 
     81 H           0.775612   -6.403257    6.634945 H         1 <1>         0.217422 
     82 H          -0.959610   -5.713584    3.972911 H         1 <1>         0.217422 
     83 H          -4.780013    3.694590   -1.450649 H         1 <1>         0.217316 
@<TRIPOS>BOND
     1    2    1 2    
     2    1    6 1    
     3    1   55 1    
     4    3    2 1    
     5    2   20 1    
     6    3    4 2    
     7    7    3 1    
     8    4    5 1    
     9    4   10 1    
    10    5    6 2    
    11    5   56 1    
    12    6   54 1    
    13    7    8 1    
    14   26    7 1    
    15    7   53 1    
    16    8    9 1    
    17    8   12 1    
    18    8   57 1    
    19    9   10 1    
    20    9   11 1    
    21    9   58 1    
    22   11   13 1    
    23   11   17 2    
    24   12   59 1    
    25   13   14 2    
    26   13   60 1    
    27   14   15 1    
    28   14   19 1    
    29   16   15 2    
    30   15   18 1    
    31   17   16 1    
    32   16   61 1    
    33   17   62 1    
    34   18   63 1    
    35   19   64 1    
    36   20   65 1    
    37   21   22 2    
    38   21   26 1    
    39   21   27 1    
    40   22   23 1    
    41   22   29 1    
    42   23   24 2    
    43   23   32 1    
    44   24   25 1    
    45   24   66 1    
    46   25   26 2    
    47   25   28 1    
    48   27   67 1    
    49   28   68 1    
    50   29   30 1    
    51   29   69 1    
    52   29   70 1    
    53   30   31 1    
    54   30   33 1    
    55   30   71 1    
    56   31   32 1    
    57   31   34 1    
    58   31   72 1    
    59   33   40 1    
    60   34   35 1    
    61   34   39 2    
    62   35   36 2    
    63   35   73 1    
    64   36   37 1    
    65   36   74 1    
    66   37   38 2    
    67   37   51 1    
    68   38   39 1    
    69   38   52 1    
    70   39   75 1    
    71   40   41 1    
    72   40   42 2    
    73   41   43 1    
    74   41   47 2    
    75   43   44 2    
    76   43   76 1    
    77   44   45 1    
    78   44   48 1    
    79   45   46 2    
    80   45   49 1    
    81   46   47 1    
    82   46   50 1    
    83   47   77 1    
    84   48   78 1    
    85   49   79 1    
    86   50   80 1    
    87   51   81 1    
    88   52   82 1    
    89   54   83 1    
@<TRIPOS>SUBSTRUCTURE
     1 ****       21 TEMP              0 ****  ****    0 ROOT 
@<TRIPOS>NORMAL
@<TRIPOS>FF_PBC
FORCE_FIELD_SETUP_FEATURE Force Field Setup information
v1.0  0 0.000000 0.000000 0.000000 0.000000 0.000000 0.000000 NONE 0 0 0 0 1 0 0 0 0 0 0 0 0
