@<TRIPOS>MOLECULE
MOL005398
  101   105     1     1     0
SMALL
GASTEIGER


@<TRIPOS>ATOM
      1 O          -5.545518   -1.293065   -0.574692 O.3       1 <1>        -0.345117 
      2 O          -6.444433   -0.443544    1.486586 O.3       1 <1>        -0.340523 
      3 O          -7.617380    1.774037   -0.250873 O.3       1 <1>        -0.384104 
      4 O          -8.309241   -1.731254   -1.271757 O.3       1 <1>        -0.386401 
      5 O          -9.183124    0.517932    1.557032 O.3       1 <1>        -0.386488 
      6 O          -8.374524   -3.695451    1.645107 O.3       1 <1>        -0.392366 
      7 C           2.058825    0.405640    0.435839 C.3       1 <1>        -0.025885 
      8 C           1.439828   -1.005038    0.708729 C.3       1 <1>        -0.031972 
      9 C           0.518257   -1.100489    1.961955 C.3       1 <1>        -0.030653 
     10 C          -0.589051   -0.011481    2.088116 C.3       1 <1>        -0.028547 
     11 C           2.544425    0.205472   -1.048420 C.3       1 <1>        -0.032778 
     12 C           0.981863    1.525259    0.586898 C.3       1 <1>        -0.046813 
     13 C          -2.051712   -0.299212    1.531216 C.3       1 <1>        -0.007819 
     14 C           0.815031   -1.517770   -0.609076 C.3       1 <1>        -0.049160 
     15 C           0.042635    1.396740    1.828483 C.3       1 <1>        -0.048644 
     16 C           1.390690   -0.600292   -1.717833 C.3       1 <1>        -0.049187 
     17 C          -0.051969   -2.521860    2.216830 C.3       1 <1>        -0.031102 
     18 C           3.083107    1.363749   -1.976535 C.3       1 <1>        -0.040533 
     19 C           3.224414    0.673242    1.444314 C.3       1 <1>        -0.059038 
     20 C          -2.361825   -1.789757    1.474835 C.2       1 <1>        -0.064832 
     21 C          -2.392224    0.291050    0.115977 C.3       1 <1>        -0.041305 
     22 C          -1.466243   -2.747754    1.755706 C.2       1 <1>        -0.083873 
     23 C          -3.051504    0.355985    2.554942 C.3       1 <1>        -0.055578 
     24 C          -3.783654   -2.170219    1.090268 C.3       1 <1>        -0.004719 
     25 C          -3.121617   -0.650623   -0.900708 C.3       1 <1>        -0.025405 
     26 C           4.459036    1.992242   -1.579439 C.3       1 <1>        -0.049933 
     27 C          -4.165214   -1.651855   -0.323913 C.3       1 <1>         0.065489 
     28 C           2.098004    2.526393   -2.315389 C.3       1 <1>        -0.062146 
     29 C           5.617883    0.968185   -1.385145 C.3       1 <1>        -0.049734 
     30 C           7.060009    1.579223   -1.356852 C.3       1 <1>        -0.038944 
     31 C          -6.061309   -0.148266    0.127878 C.3       1 <1>         0.188218 
     32 C           8.183953    0.484781   -1.197477 C.3       1 <1>        -0.043894 
     33 C           7.123425    2.672996   -0.236063 C.3       1 <1>        -0.052828 
     34 C          -7.237206    0.452235   -0.693821 C.3       1 <1>         0.134121 
     35 C           9.474288    0.853157   -1.995369 C.3       1 <1>        -0.062414 
     36 C           7.787638   -0.957118   -1.643415 C.3       1 <1>        -0.062414 
     37 C          -8.484415   -0.463527   -0.609148 C.3       1 <1>         0.114061 
     38 C           8.486887    3.382313   -0.022333 C.3       1 <1>        -0.065017 
     39 C          -7.595672   -1.310945    1.616775 C.3       1 <1>         0.113005 
     40 C          -8.825230   -0.707201    0.882351 C.3       1 <1>         0.111896 
     41 C          -7.288113   -2.809294    1.312907 C.3       1 <1>         0.073015 
     42 H           2.290785   -1.689255    0.889831 H         1 <1>         0.030896 
     43 H           1.238109   -0.932133    2.786015 H         1 <1>         0.030949 
     44 H          -0.756290   -0.045941    3.181548 H         1 <1>         0.031195 
     45 H           3.367865   -0.525924   -0.990477 H         1 <1>         0.030870 
     46 H           1.500344    2.491546    0.689681 H         1 <1>         0.027078 
     47 H           0.399762    1.613677   -0.329920 H         1 <1>         0.027078 
     48 H          -0.273497   -1.463820   -0.547207 H         1 <1>         0.026828 
     49 H           1.071547   -2.575134   -0.797408 H         1 <1>         0.026828 
     50 H           0.653178    1.664594    2.708442 H         1 <1>         0.026846 
     51 H          -0.748049    2.159273    1.752686 H         1 <1>         0.026846 
     52 H           1.747761   -1.182942   -2.584234 H         1 <1>         0.026828 
     53 H           0.580502    0.046852   -2.078309 H         1 <1>         0.026828 
     54 H          -0.090377   -2.715993    3.302188 H         1 <1>         0.031025 
     55 H           0.612555   -3.279914    1.772336 H         1 <1>         0.031025 
     56 H           3.261237    0.866445   -2.947670 H         1 <1>         0.030096 
     57 H           3.994695   -0.109567    1.390763 H         1 <1>         0.023524 
     58 H           2.863194    0.703284    2.480259 H         1 <1>         0.023524 
     59 H           3.710136    1.637288    1.260483 H         1 <1>         0.023524 
     60 H          -1.474905    0.567389   -0.397524 H         1 <1>         0.027446 
     61 H          -2.951264    1.234918    0.213418 H         1 <1>         0.027446 
     62 H          -1.757286   -3.796732    1.680158 H         1 <1>         0.057190 
     63 H          -4.080692    0.431740    2.186730 H         1 <1>         0.023820 
     64 H          -3.081820   -0.218705    3.494564 H         1 <1>         0.023820 
     65 H          -2.748340    1.384486    2.799845 H         1 <1>         0.023820 
     66 H          -4.458488   -1.766109    1.848138 H         1 <1>         0.033519 
     67 H          -3.946091   -3.260144    1.132215 H         1 <1>         0.033519 
     68 H          -2.357232   -1.257947   -1.413091 H         1 <1>         0.029048 
     69 H          -3.601052   -0.050935   -1.692248 H         1 <1>         0.029048 
     70 H           4.306396    2.609987   -0.686594 H         1 <1>         0.026802 
     71 H           4.772363    2.670943   -2.390405 H         1 <1>         0.026802 
     72 H          -4.122415   -2.532523   -0.992252 H         1 <1>         0.059993 
     73 H           1.966085    3.204963   -1.463578 H         1 <1>         0.023250 
     74 H           2.506637    3.132139   -3.140083 H         1 <1>         0.023250 
     75 H           1.111928    2.178115   -2.647656 H         1 <1>         0.023250 
     76 H           5.538791    0.266042   -2.228713 H         1 <1>         0.026810 
     77 H           5.465540    0.419165   -0.446504 H         1 <1>         0.026810 
     78 H           7.207960    2.077536   -2.329829 H         1 <1>         0.030319 
     79 H          -5.297497    0.639724    0.150178 H         1 <1>         0.093750 
     80 H           8.435333    0.403586   -0.126164 H         1 <1>         0.029814 
     81 H           6.420637    3.485645   -0.477194 H         1 <1>         0.026538 
     82 H           6.812883    2.225890    0.722835 H         1 <1>         0.026538 
     83 H          -6.926190    0.520984   -1.750873 H         1 <1>         0.067095 
     84 H           8.634779   -1.647055   -1.503152 H         1 <1>         0.023242 
     85 H           6.954403   -1.360800   -1.049254 H         1 <1>         0.023242 
     86 H           7.514449   -0.976666   -2.709605 H         1 <1>         0.023242 
     87 H           9.268519    0.821385   -3.076549 H         1 <1>         0.023242 
     88 H           9.861028    1.851522   -1.764300 H         1 <1>         0.023242 
     89 H          10.280224    0.134249   -1.779616 H         1 <1>         0.023242 
     90 H          -9.333411    0.057428   -1.085666 H         1 <1>         0.064758 
     91 H           8.375578    4.181047    0.728991 H         1 <1>         0.022986 
     92 H           9.251222    2.686708    0.353845 H         1 <1>         0.022986 
     93 H           8.830495    3.846389   -0.959631 H         1 <1>         0.022986 
     94 H          -7.847695   -1.287842    2.690097 H         1 <1>         0.064668 
     95 H          -9.690016   -1.386466    0.950178 H         1 <1>         0.064673 
     96 H          -6.916159    2.416204   -0.295248 H         1 <1>         0.210110 
     97 H          -6.960902   -2.994712    0.280811 H         1 <1>         0.058370 
     98 H          -6.464610   -3.115951    1.974481 H         1 <1>         0.058370 
     99 H          -8.088235   -1.652622   -2.194677 H         1 <1>         0.210005 
    100 H          -9.912154    0.981286    1.157238 H         1 <1>         0.210004 
    101 H          -9.107383   -3.646252    1.040102 H         1 <1>         0.209508 
@<TRIPOS>BOND
     1    1   27 1    
     2   31    1 1    
     3    2   31 1    
     4   39    2 1    
     5   34    3 1    
     6    3   96 1    
     7   37    4 1    
     8    4   99 1    
     9   40    5 1    
    10    5  100 1    
    11   41    6 1    
    12    6  101 1    
    13    8    7 1    
    14    7   11 1    
    15   12    7 1    
    16    7   19 1    
    17    9    8 1    
    18    8   14 1    
    19    8   42 1    
    20   10    9 1    
    21   17    9 1    
    22    9   43 1    
    23   13   10 1    
    24   10   15 1    
    25   10   44 1    
    26   11   16 1    
    27   11   18 1    
    28   11   45 1    
    29   15   12 1    
    30   12   46 1    
    31   12   47 1    
    32   20   13 1    
    33   21   13 1    
    34   13   23 1    
    35   14   16 1    
    36   14   48 1    
    37   14   49 1    
    38   15   50 1    
    39   15   51 1    
    40   16   52 1    
    41   16   53 1    
    42   22   17 1    
    43   17   54 1    
    44   17   55 1    
    45   18   26 1    
    46   18   28 1    
    47   18   56 1    
    48   19   57 1    
    49   19   58 1    
    50   19   59 1    
    51   20   22 2    
    52   24   20 1    
    53   25   21 1    
    54   21   60 1    
    55   21   61 1    
    56   22   62 1    
    57   23   63 1    
    58   23   64 1    
    59   23   65 1    
    60   27   24 1    
    61   24   66 1    
    62   24   67 1    
    63   27   25 1    
    64   25   68 1    
    65   25   69 1    
    66   26   29 1    
    67   26   70 1    
    68   26   71 1    
    69   27   72 1    
    70   28   73 1    
    71   28   74 1    
    72   28   75 1    
    73   29   30 1    
    74   29   76 1    
    75   29   77 1    
    76   30   32 1    
    77   30   33 1    
    78   30   78 1    
    79   31   34 1    
    80   31   79 1    
    81   32   35 1    
    82   32   36 1    
    83   32   80 1    
    84   33   38 1    
    85   33   81 1    
    86   33   82 1    
    87   37   34 1    
    88   34   83 1    
    89   35   87 1    
    90   35   88 1    
    91   35   89 1    
    92   36   84 1    
    93   36   85 1    
    94   36   86 1    
    95   40   37 1    
    96   37   90 1    
    97   38   91 1    
    98   38   92 1    
    99   38   93 1    
   100   39   40 1    
   101   39   41 1    
   102   39   94 1    
   103   40   95 1    
   104   41   97 1    
   105   41   98 1    
@<TRIPOS>SUBSTRUCTURE
     1 ****        7 TEMP              0 ****  ****    0 ROOT 
@<TRIPOS>NORMAL
@<TRIPOS>FF_PBC
FORCE_FIELD_SETUP_FEATURE Force Field Setup information
v1.0  0 0.000000 0.000000 0.000000 0.000000 0.000000 0.000000 NONE 0 0 0 0 1 0 0 0 0 0 0 0 0
