@<TRIPOS>MOLECULE
MOL012964
  140   148     1     1     0
SMALL
GASTEIGER


@<TRIPOS>ATOM
      1 C           3.279296    9.451409    4.275694 C.2       1 <1>        -0.077208 
      2 C           2.512684   10.129833    5.391370 C.3       1 <1>        -0.043969 
      3 C           4.671907    8.984136    4.642534 C.3       1 <1>        -0.043969 
      4 C           2.738370    9.297101    3.053474 C.2       1 <1>        -0.056719 
      5 C           3.443116    8.683968    1.864215 C.3       1 <1>         0.082911 
      6 O           3.664275    7.277852    2.105760 O.3       1 <1>        -0.340889 
      7 C           2.716602    8.994352    0.519803 C.3       1 <1>         0.006275 
      8 C           1.341402    8.261269    0.349353 C.3       1 <1>         0.073921 
      9 C           1.393558    6.928147    1.175709 C.3       1 <1>         0.045172 
     10 C           2.841544    6.425255    1.299987 C.3       1 <1>         0.176956 
     11 C           1.033993    8.172438   -1.172568 C.3       1 <1>        -0.035536 
     12 O           0.327177    9.115241    0.916886 O.3       1 <1>        -0.388286 
     13 C           0.678708    5.575137    0.827794 C.3       1 <1>        -0.022254 
     14 C           1.832819    4.537191    0.603269 C.3       1 <1>         0.008081 
     15 C           2.736070    4.969459    1.793067 C.3       1 <1>         0.010330 
     16 C          -0.421963    5.390843   -0.233246 C.3       1 <1>        -0.048816 
     17 C          -1.061566    3.972562   -0.046646 C.3       1 <1>        -0.048911 
     18 C          -0.212885    2.924677    0.775044 C.3       1 <1>        -0.029356 
     19 C           1.321009    3.029059    0.428370 C.3       1 <1>        -0.020557 
     20 C          -0.893506    1.484569    0.896929 C.3       1 <1>        -0.025246 
     21 C           0.120094    0.369099    1.406522 C.3       1 <1>        -0.027836 
     22 C           1.289892    1.043408    2.185657 C.3       1 <1>        -0.048617 
     23 C           2.141425    2.024873    1.325595 C.3       1 <1>        -0.046476 
     24 C          -1.626158    1.039153   -0.411188 C.3       1 <1>        -0.044721 
     25 C          -1.850879   -0.487623   -0.452935 C.3       1 <1>        -0.025470 
     26 C          -0.509385   -1.238612   -0.613411 C.3       1 <1>         0.067174 
     27 C           0.467003   -0.967050    0.591679 C.3       1 <1>        -0.005230 
     28 C           2.784249    5.040442   -0.528634 C.3       1 <1>         0.057503 
     29 O           3.344426    6.258953   -0.026957 O.3       1 <1>        -0.347589 
     30 C           1.479066    2.585322   -1.065146 C.3       1 <1>        -0.058701 
     31 C          -2.041412    1.627596    1.984839 C.3       1 <1>        -0.059019 
     32 C           0.352289   -2.202169    1.558095 C.3       1 <1>        -0.057181 
     33 C           1.953144   -1.039763    0.091641 C.3       1 <1>        -0.057181 
     34 O          -0.931904   -2.627954   -0.692565 O.3       1 <1>        -0.344893 
     35 C          -0.258041   -3.445978   -1.671223 C.3       1 <1>         0.188196 
     36 O          -0.766720   -3.171508   -2.989664 O.3       1 <1>        -0.346051 
     37 C          -2.148603   -3.547909   -3.140482 C.3       1 <1>         0.079203 
     38 C          -2.329107   -5.060322   -2.861379 C.3       1 <1>         0.107307 
     39 C          -1.950305   -5.319154   -1.376162 C.3       1 <1>         0.120590 
     40 C          -0.444254   -4.937965   -1.264465 C.3       1 <1>         0.140966 
     41 O          -3.675396   -5.456713   -3.189102 O.3       1 <1>        -0.386848 
     42 O           0.300982   -5.914229   -2.038710 O.3       1 <1>        -0.337751 
     43 C           1.738931   -5.749631   -2.032818 C.3       1 <1>         0.188431 
     44 O          -2.860942   -4.553869   -0.534217 O.3       1 <1>        -0.340053 
     45 C          -2.775472   -4.823123    0.885609 C.3       1 <1>         0.188437 
     46 O          -3.244558   -6.141365    1.222111 O.3       1 <1>        -0.340520 
     47 C          -4.663990   -6.354466    1.023185 C.3       1 <1>         0.113005 
     48 C          -5.574721   -5.227710    1.595278 C.3       1 <1>         0.111896 
     49 C          -5.035537   -3.804547    1.290306 C.3       1 <1>         0.114061 
     50 C          -3.550354   -3.756720    1.708954 C.3       1 <1>         0.134124 
     51 O           2.130412   -4.699855   -2.935038 O.3       1 <1>        -0.343067 
     52 C           1.738805   -4.955727   -4.299257 C.3       1 <1>         0.087307 
     53 C           2.423503   -6.244299   -4.840689 C.3       1 <1>         0.109478 
     54 C           2.029000   -7.428404   -3.914834 C.3       1 <1>         0.113972 
     55 C           2.416161   -7.079900   -2.453826 C.3       1 <1>         0.134123 
     56 C          -5.043886   -6.760106   -0.423786 C.3       1 <1>         0.073015 
     57 O          -6.370847   -7.322292   -0.419542 O.3       1 <1>        -0.392366 
     58 O          -5.218851   -3.337442   -0.062466 O.3       1 <1>        -0.386401 
     59 O          -5.717526   -5.383319    3.021972 O.3       1 <1>        -0.386488 
     60 O          -3.460463   -3.994840    3.132230 O.3       1 <1>        -0.384104 
     61 C           2.109428   -3.714350   -5.148656 C.3       1 <1>        -0.036060 
     62 O           2.607576   -8.686273   -4.316273 O.3       1 <1>        -0.386402 
     63 O           3.848309   -7.005603   -2.304027 O.3       1 <1>        -0.384104 
     64 O           3.853701   -6.042913   -4.869358 O.3       1 <1>        -0.386579 
     65 H           1.530949   10.514921    5.076462 H         1 <1>         0.027428 
     66 H           3.101387   10.979043    5.769944 H         1 <1>         0.027428 
     67 H           2.349007    9.419923    6.215765 H         1 <1>         0.027428 
     68 H           5.083820    8.236621    3.951309 H         1 <1>         0.027428 
     69 H           4.661637    8.527162    5.643973 H         1 <1>         0.027428 
     70 H           5.346062    9.853229    4.660858 H         1 <1>         0.027428 
     71 H           1.719836    9.646640    2.897741 H         1 <1>         0.059695 
     72 H           4.442250    9.148621    1.816646 H         1 <1>         0.064228 
     73 H           2.572490   10.082994    0.421456 H         1 <1>         0.032111 
     74 H           3.406709    8.691529   -0.284939 H         1 <1>         0.032111 
     75 H           1.137920    7.236288    2.208056 H         1 <1>         0.038356 
     76 H           0.005300    7.844960   -1.368075 H         1 <1>         0.025733 
     77 H           1.131745    9.178031   -1.613504 H         1 <1>         0.025733 
     78 H           1.733557    7.505620   -1.692949 H         1 <1>         0.025733 
     79 H          -0.548955    8.747494    0.865427 H         1 <1>         0.210163 
     80 H           0.133045    5.376626    1.766073 H         1 <1>         0.031229 
     81 H           3.751906    4.541537    1.822240 H         1 <1>         0.032341 
     82 H           2.269856    4.884296    2.787806 H         1 <1>         0.032341 
     83 H          -1.190294    6.173980   -0.121247 H         1 <1>         0.026833 
     84 H           0.011327    5.481393   -1.238434 H         1 <1>         0.026833 
     85 H          -1.308265    3.600494   -1.051159 H         1 <1>         0.026837 
     86 H          -2.022052    4.118962    0.468168 H         1 <1>         0.026837 
     87 H          -0.211157    3.263469    1.817108 H         1 <1>         0.031156 
     88 H          -0.424412   -0.078342    2.253827 H         1 <1>         0.031210 
     89 H           0.865084    1.620174    3.028724 H         1 <1>         0.026846 
     90 H           1.942589    0.295479    2.664693 H         1 <1>         0.026846 
     91 H           2.749060    2.532652    2.081669 H         1 <1>         0.027088 
     92 H           2.875770    1.473089    0.723394 H         1 <1>         0.027088 
     93 H          -2.609980    1.529934   -0.486770 H         1 <1>         0.027149 
     94 H          -1.089535    1.300599   -1.327463 H         1 <1>         0.027149 
     95 H          -2.494251   -0.729456   -1.316158 H         1 <1>         0.029047 
     96 H          -2.366090   -0.836651    0.447499 H         1 <1>         0.029047 
     97 H          -0.067196   -0.888112   -1.563495 H         1 <1>         0.060224 
     98 H           2.327104    5.200293   -1.512868 H         1 <1>         0.056658 
     99 H           3.653817    4.377094   -0.652742 H         1 <1>         0.056658 
    100 H           1.085696    1.580454   -1.217456 H         1 <1>         0.023534 
    101 H           2.528587    2.532141   -1.382260 H         1 <1>         0.023534 
    102 H           0.952104    3.249930   -1.759390 H         1 <1>         0.023534 
    103 H          -1.637064    1.890105    2.976119 H         1 <1>         0.023525 
    104 H          -2.610849    0.698584    2.129484 H         1 <1>         0.023525 
    105 H          -2.784547    2.393912    1.732988 H         1 <1>         0.023525 
    106 H           0.955332   -2.052937    2.467223 H         1 <1>         0.023587 
    107 H           0.702473   -3.136552    1.093683 H         1 <1>         0.023587 
    108 H          -0.692199   -2.365411    1.865468 H         1 <1>         0.023587 
    109 H           2.188472   -2.006299   -0.372921 H         1 <1>         0.023587 
    110 H           2.187547   -0.286344   -0.666663 H         1 <1>         0.023587 
    111 H           2.676183   -0.947229    0.912114 H         1 <1>         0.023587 
    112 H           0.811740   -3.216965   -1.681662 H         1 <1>         0.093749 
    113 H          -2.441723   -3.338052   -4.180843 H         1 <1>         0.058735 
    114 H          -2.802600   -2.954546   -2.485122 H         1 <1>         0.058735 
    115 H          -1.648002   -5.602435   -3.540705 H         1 <1>         0.064310 
    116 H          -2.060469   -6.394563   -1.165864 H         1 <1>         0.065136 
    117 H          -0.102138   -5.064540   -0.229234 H         1 <1>         0.067487 
    118 H          -3.802647   -6.399986   -3.148972 H         1 <1>         0.209990 
    119 H           2.127454   -5.513398   -1.027807 H         1 <1>         0.093753 
    120 H          -1.742485   -4.749063    1.247998 H         1 <1>         0.093753 
    121 H          -4.879568   -7.261554    1.615243 H         1 <1>         0.064668 
    122 H          -6.591550   -5.317987    1.180404 H         1 <1>         0.064673 
    123 H          -5.606268   -3.099726    1.918129 H         1 <1>         0.064758 
    124 H          -3.172308   -2.751866    1.472912 H         1 <1>         0.067095 
    125 H           0.642803   -5.064810   -4.360141 H         1 <1>         0.062075 
    126 H           2.052414   -6.440066   -5.863675 H         1 <1>         0.064584 
    127 H           0.935762   -7.566156   -3.975210 H         1 <1>         0.064757 
    128 H           2.060811   -7.884775   -1.789809 H         1 <1>         0.067095 
    129 H          -4.319233   -7.510477   -0.781169 H         1 <1>         0.058370 
    130 H          -5.024672   -5.892878   -1.092570 H         1 <1>         0.058370 
    131 H          -6.663531   -7.606203   -1.280840 H         1 <1>         0.209508 
    132 H          -4.595986   -3.708968   -0.680461 H         1 <1>         0.210005 
    133 H          -4.886438   -5.264971    3.476622 H         1 <1>         0.210004 
    134 H          -2.571010   -3.939957    3.468491 H         1 <1>         0.210110 
    135 H           1.823047   -3.865010   -6.201462 H         1 <1>         0.025536 
    136 H           1.576994   -2.829273   -4.764547 H         1 <1>         0.025536 
    137 H           3.191666   -3.521452   -5.097354 H         1 <1>         0.025536 
    138 H           3.549952   -8.712464   -4.181757 H         1 <1>         0.210005 
    139 H           4.220781   -6.307528   -2.837712 H         1 <1>         0.210110 
    140 H           4.323841   -6.747218   -5.306168 H         1 <1>         0.210002 
@<TRIPOS>BOND
     1    1    2 1    
     2    1    3 1    
     3    1    4 2    
     4    2   65 1    
     5    2   66 1    
     6    2   67 1    
     7    3   68 1    
     8    3   69 1    
     9    3   70 1    
    10    4    5 1    
    11    4   71 1    
    12    5    6 1    
    13    5    7 1    
    14    5   72 1    
    15    6   10 1    
    16    7    8 1    
    17    7   73 1    
    18    7   74 1    
    19    8    9 1    
    20    8   11 1    
    21    8   12 1    
    22    9   10 1    
    23    9   13 1    
    24    9   75 1    
    25   10   15 1    
    26   10   29 1    
    27   11   76 1    
    28   11   77 1    
    29   11   78 1    
    30   12   79 1    
    31   13   14 1    
    32   13   16 1    
    33   13   80 1    
    34   14   15 1    
    35   14   19 1    
    36   14   28 1    
    37   15   81 1    
    38   15   82 1    
    39   16   17 1    
    40   16   83 1    
    41   16   84 1    
    42   17   18 1    
    43   17   85 1    
    44   17   86 1    
    45   18   19 1    
    46   18   20 1    
    47   18   87 1    
    48   19   23 1    
    49   19   30 1    
    50   20   21 1    
    51   20   24 1    
    52   20   31 1    
    53   21   22 1    
    54   21   27 1    
    55   21   88 1    
    56   22   23 1    
    57   22   89 1    
    58   22   90 1    
    59   23   91 1    
    60   23   92 1    
    61   24   25 1    
    62   24   93 1    
    63   24   94 1    
    64   25   26 1    
    65   25   95 1    
    66   25   96 1    
    67   26   27 1    
    68   26   34 1    
    69   26   97 1    
    70   27   32 1    
    71   27   33 1    
    72   28   29 1    
    73   28   98 1    
    74   28   99 1    
    75   30  100 1    
    76   30  101 1    
    77   30  102 1    
    78   31  103 1    
    79   31  104 1    
    80   31  105 1    
    81   32  106 1    
    82   32  107 1    
    83   32  108 1    
    84   33  109 1    
    85   33  110 1    
    86   33  111 1    
    87   34   35 1    
    88   35   36 1    
    89   35   40 1    
    90   35  112 1    
    91   36   37 1    
    92   37   38 1    
    93   37  113 1    
    94   37  114 1    
    95   38   39 1    
    96   38   41 1    
    97   38  115 1    
    98   39   40 1    
    99   39   44 1    
   100   39  116 1    
   101   40   42 1    
   102   40  117 1    
   103   41  118 1    
   104   42   43 1    
   105   43   51 1    
   106   43   55 1    
   107   43  119 1    
   108   44   45 1    
   109   45   46 1    
   110   45   50 1    
   111   45  120 1    
   112   46   47 1    
   113   47   48 1    
   114   47   56 1    
   115   47  121 1    
   116   48   49 1    
   117   48   59 1    
   118   48  122 1    
   119   49   50 1    
   120   49   58 1    
   121   49  123 1    
   122   50   60 1    
   123   50  124 1    
   124   51   52 1    
   125   52   53 1    
   126   52   61 1    
   127   52  125 1    
   128   53   54 1    
   129   53   64 1    
   130   53  126 1    
   131   54   55 1    
   132   54   62 1    
   133   54  127 1    
   134   55   63 1    
   135   55  128 1    
   136   56   57 1    
   137   56  129 1    
   138   56  130 1    
   139   57  131 1    
   140   58  132 1    
   141   59  133 1    
   142   60  134 1    
   143   61  135 1    
   144   61  136 1    
   145   61  137 1    
   146   62  138 1    
   147   63  139 1    
   148   64  140 1    
@<TRIPOS>SUBSTRUCTURE
     1 ****        1 TEMP              0 ****  ****    0 ROOT 
@<TRIPOS>NORMAL
@<TRIPOS>FF_PBC
FORCE_FIELD_SETUP_FEATURE Force Field Setup information
v1.0  0 0.000000 0.000000 0.000000 0.000000 0.000000 0.000000 NONE 0 0 0 0 1 0 0 0 0 0 0 0 0
