@<TRIPOS>MOLECULE
MOL003978
   55    54     1     1     0
SMALL
GASTEIGER


@<TRIPOS>ATOM
      1 C           2.910106    3.127700    5.358258 C.2       1 <1>        -0.099966 
      2 C           2.853541    2.223619    4.371509 C.2       1 <1>        -0.060223 
      3 C           2.022902    0.954514    4.411094 C.3       1 <1>         0.081390 
      4 C           3.011450   -0.251820    4.313690 C.3       1 <1>        -0.017216 
      5 C           2.374963   -1.660809    4.122417 C.3       1 <1>        -0.031629 
      6 C           1.795202   -1.862370    2.737906 C.2       1 <1>        -0.084914 
      7 C           0.702135   -2.585276    2.438991 C.2       1 <1>        -0.076240 
      8 C           0.139667   -2.659267    1.027461 C.3       1 <1>        -0.028563 
      9 C           0.319728   -1.377851    0.163828 C.3       1 <1>        -0.030839 
     10 C          -0.569491   -1.353929   -1.059873 C.2       1 <1>        -0.084718 
     11 C          -0.819315   -0.268154   -1.813610 C.2       1 <1>        -0.076231 
     12 C          -1.791674   -0.363373   -2.979669 C.3       1 <1>        -0.028563 
     13 C          -1.550493    0.601467   -4.175769 C.3       1 <1>        -0.030848 
     14 C          -2.573146    0.405250   -5.274083 C.2       1 <1>        -0.084989 
     15 C          -2.801125    1.271045   -6.276933 C.2       1 <1>        -0.079608 
     16 C          -3.874980    1.008974   -7.311605 C.3       1 <1>        -0.044049 
     17 O           1.291904    0.918345    5.651204 O.3       1 <1>        -0.384818 
     18 C          -2.031477    2.560778   -6.465004 C.3       1 <1>        -0.044049 
     19 C          -0.196168    1.090781   -1.558445 C.3       1 <1>        -0.043778 
     20 C          -0.054921   -3.381520    3.482669 C.3       1 <1>        -0.043778 
     21 C           1.014014    1.044609    3.234415 C.3       1 <1>        -0.032444 
     22 H           3.528974    4.018883    5.250849 H         1 <1>         0.053262 
     23 H           2.352790    3.016251    6.287562 H         1 <1>         0.053262 
     24 H           3.444055    2.413882    3.473119 H         1 <1>         0.059440 
     25 H           3.725730   -0.087520    3.490867 H         1 <1>         0.029887 
     26 H           3.589175   -0.256591    5.253523 H         1 <1>         0.029887 
     27 H           3.164490   -2.421067    4.240495 H         1 <1>         0.030839 
     28 H           1.639757   -1.816934    4.922599 H         1 <1>         0.030839 
     29 H           2.337359   -1.365607    1.936338 H         1 <1>         0.057155 
     30 H          -0.948727   -2.811756    1.114347 H         1 <1>         0.031285 
     31 H           0.565359   -3.534356    0.511304 H         1 <1>         0.031285 
     32 H           1.362139   -1.273140   -0.174600 H         1 <1>         0.031044 
     33 H           0.047975   -0.530833    0.810954 H         1 <1>         0.031044 
     34 H          -1.043154   -2.298856   -1.330211 H         1 <1>         0.057163 
     35 H          -1.794557   -1.391219   -3.377944 H         1 <1>         0.031285 
     36 H          -2.794056   -0.154920   -2.572364 H         1 <1>         0.031285 
     37 H          -1.623514    1.640233   -3.818013 H         1 <1>         0.031044 
     38 H          -0.544967    0.423372   -4.589200 H         1 <1>         0.031044 
     39 H          -3.164975   -0.509807   -5.237482 H         1 <1>         0.057155 
     40 H          -4.468738    0.106548   -7.100936 H         1 <1>         0.027427 
     41 H          -4.562361    1.868019   -7.345179 H         1 <1>         0.027427 
     42 H          -3.409788    0.888415   -8.301759 H         1 <1>         0.027427 
     43 H           0.699362    0.180286    5.730233 H         1 <1>         0.210579 
     44 H          -1.079257    2.590682   -5.917314 H         1 <1>         0.027427 
     45 H          -2.657966    3.401548   -6.130855 H         1 <1>         0.027427 
     46 H          -1.796018    2.702619   -7.530841 H         1 <1>         0.027427 
     47 H           0.488118    1.126712   -0.701530 H         1 <1>         0.027436 
     48 H           0.390825    1.404165   -2.433788 H         1 <1>         0.027436 
     49 H          -0.995345    1.824904   -1.377328 H         1 <1>         0.027436 
     50 H           0.593248   -3.756247    4.287336 H         1 <1>         0.027436 
     51 H          -0.842010   -2.747041    3.916946 H         1 <1>         0.027436 
     52 H          -0.527185   -4.266486    3.029851 H         1 <1>         0.027436 
     53 H           0.438557    1.979746    3.317023 H         1 <1>         0.026037 
     54 H           0.298332    0.210601    3.262432 H         1 <1>         0.026037 
     55 H           1.538816    1.042673    2.267076 H         1 <1>         0.026037 
@<TRIPOS>BOND
     1    1    2 2    
     2    1   22 1    
     3    1   23 1    
     4    2    3 1    
     5    2   24 1    
     6    3    4 1    
     7    3   17 1    
     8    3   21 1    
     9    4    5 1    
    10    4   25 1    
    11    4   26 1    
    12    5    6 1    
    13    5   27 1    
    14    5   28 1    
    15    6    7 2    
    16    6   29 1    
    17    7    8 1    
    18    7   20 1    
    19    8    9 1    
    20    8   30 1    
    21    8   31 1    
    22    9   10 1    
    23    9   32 1    
    24    9   33 1    
    25   10   11 2    
    26   10   34 1    
    27   11   12 1    
    28   11   19 1    
    29   12   13 1    
    30   12   35 1    
    31   12   36 1    
    32   13   14 1    
    33   13   37 1    
    34   13   38 1    
    35   14   15 2    
    36   14   39 1    
    37   15   16 1    
    38   15   18 1    
    39   16   40 1    
    40   16   41 1    
    41   16   42 1    
    42   17   43 1    
    43   18   44 1    
    44   18   45 1    
    45   18   46 1    
    46   19   47 1    
    47   19   48 1    
    48   19   49 1    
    49   20   50 1    
    50   20   51 1    
    51   20   52 1    
    52   21   53 1    
    53   21   54 1    
    54   21   55 1    
@<TRIPOS>SUBSTRUCTURE
     1 ****        1 TEMP              0 ****  ****    0 ROOT 
@<TRIPOS>NORMAL
@<TRIPOS>FF_PBC
FORCE_FIELD_SETUP_FEATURE Force Field Setup information
v1.0  0 0.000000 0.000000 0.000000 0.000000 0.000000 0.000000 NONE 0 0 0 0 1 0 0 0 0 0 0 0 0
