@<TRIPOS>MOLECULE
MOL004824
   48    51     1     1     0
SMALL
GASTEIGER


@<TRIPOS>ATOM
      1 O          -3.459975    1.501787   -0.044096 O.3       1 <1>        -0.337899 
      2 O          -5.269557   -0.084754    1.576529 O.3       1 <1>        -0.386534 
      3 O          -0.168287   -1.987109   -0.535176 O.3       1 <1>        -0.346886 
      4 O           1.341382    2.674022    0.094069 O.3       1 <1>        -0.273171 
      5 O           3.504823    3.091327    0.181007 O.2       1 <1>        -0.258804 
      6 O           4.359286    0.118582    2.229507 O.3       1 <1>        -0.359141 
      7 O           8.517918   -0.830807   -0.225422 O.3       1 <1>        -0.359750 
      8 C          -4.117996    0.307085   -0.545260 C.3       1 <1>         0.097402 
      9 C          -5.488161    0.098384    0.166674 C.3       1 <1>         0.087298 
     10 C          -3.135823   -0.892595   -0.357768 C.3       1 <1>         0.006803 
     11 C          -1.826929   -0.138031   -0.278395 C.ar      1 <1>         0.015806 
     12 C          -2.111914    1.181348   -0.105130 C.ar      1 <1>         0.084868 
     13 C          -6.204444   -1.176509   -0.355533 C.3       1 <1>        -0.033867 
     14 C          -6.403668    1.335677   -0.048843 C.3       1 <1>        -0.033867 
     15 C          -0.436982   -0.632195   -0.351536 C.ar      1 <1>         0.091131 
     16 C           0.601514    0.305351   -0.225396 C.ar      1 <1>         0.036705 
     17 C          -1.030617    2.185469    0.020827 C.ar      1 <1>         0.000001 
     18 C           0.302543    1.747770   -0.033882 C.ar      1 <1>         0.098534 
     19 C           2.050316   -0.109254   -0.273884 C.2       1 <1>        -0.036075 
     20 C           2.976982    0.840331   -0.130166 C.2       1 <1>         0.057145 
     21 C           2.618555    2.262327    0.058312 C.2       1 <1>         0.299461 
     22 C           4.431147    0.431877   -0.161851 C.ar      1 <1>         0.017745 
     23 C          -0.122573   -2.735017    0.690315 C.3       1 <1>         0.043065 
     24 C           5.071203    0.073895    1.029411 C.ar      1 <1>         0.082884 
     25 C           5.165591    0.399641   -1.447361 C.ar      1 <1>        -0.048954 
     26 C           6.492836   -0.356045    0.992621 C.ar      1 <1>        -0.001570 
     27 C           6.503291   -0.011497   -1.477605 C.ar      1 <1>        -0.031201 
     28 C           7.187539   -0.407127   -0.219741 C.ar      1 <1>         0.075055 
     29 H          -4.273257    0.464400   -1.626552 H         1 <1>         0.063292 
     30 H          -3.153438   -1.615505   -1.188349 H         1 <1>         0.034095 
     31 H          -3.280224   -1.410098    0.602057 H         1 <1>         0.034095 
     32 H          -7.169574   -1.300305    0.159015 H         1 <1>         0.025796 
     33 H          -6.388423   -1.104497   -1.438166 H         1 <1>         0.025796 
     34 H          -5.601486   -2.075090   -0.159687 H         1 <1>         0.025796 
     35 H          -5.913234    2.251831    0.312870 H         1 <1>         0.025796 
     36 H          -7.344777    1.207010    0.507281 H         1 <1>         0.025796 
     37 H          -6.639100    1.463027   -1.116409 H         1 <1>         0.025796 
     38 H          -1.266870    3.234464    0.155017 H         1 <1>         0.066964 
     39 H          -4.801698    0.652098    1.958431 H         1 <1>         0.210247 
     40 H           2.327304   -1.153460   -0.418509 H         1 <1>         0.063295 
     41 H           0.111787   -3.781325    0.445645 H         1 <1>         0.052870 
     42 H          -1.093250   -2.703248    1.208412 H         1 <1>         0.052870 
     43 H           0.659349   -2.345772    1.361218 H         1 <1>         0.052870 
     44 H           4.662588    0.693956   -2.363159 H         1 <1>         0.062523 
     45 H           7.004310   -0.639150    1.905419 H         1 <1>         0.066920 
     46 H           7.036146   -0.037722   -2.422090 H         1 <1>         0.064340 
     47 H           4.887607   -0.083624    2.993611 H         1 <1>         0.217339 
     48 H           8.889243   -0.908823   -1.096683 H         1 <1>         0.217315 
@<TRIPOS>BOND
     1    1    8 1    
     2   12    1 1    
     3    9    2 1    
     4    2   39 1    
     5   15    3 1    
     6    3   23 1    
     7    4   18 1    
     8   21    4 1    
     9   21    5 2    
    10   24    6 1    
    11    6   47 1    
    12   28    7 1    
    13    7   48 1    
    14    8    9 1    
    15   10    8 1    
    16    8   29 1    
    17    9   13 1    
    18    9   14 1    
    19   11   10 1    
    20   10   30 1    
    21   10   31 1    
    22   11   12 2    
    23   15   11 1    
    24   17   12 1    
    25   13   32 1    
    26   13   33 1    
    27   13   34 1    
    28   14   35 1    
    29   14   36 1    
    30   14   37 1    
    31   16   15 2    
    32   16   18 1    
    33   19   16 1    
    34   18   17 2    
    35   17   38 1    
    36   20   19 2    
    37   19   40 1    
    38   20   21 1    
    39   22   20 1    
    40   24   22 2    
    41   22   25 1    
    42   23   41 1    
    43   23   42 1    
    44   23   43 1    
    45   26   24 1    
    46   25   27 2    
    47   25   44 1    
    48   26   28 2    
    49   26   45 1    
    50   27   28 1    
    51   27   46 1    
@<TRIPOS>SUBSTRUCTURE
     1 ****        1 TEMP              0 ****  ****    0 ROOT 
@<TRIPOS>NORMAL
@<TRIPOS>FF_PBC
FORCE_FIELD_SETUP_FEATURE Force Field Setup information
v1.0  0 0.000000 0.000000 0.000000 0.000000 0.000000 0.000000 NONE 0 0 0 0 1 0 0 0 0 0 0 0 0
