@<TRIPOS>MOLECULE
MOL001600
   39    41     1     1     0
SMALL
GASTEIGER


@<TRIPOS>ATOM
      1 C           1.495277   -0.113865   -0.822621 C.3       1 <1>        -0.021911 
      2 C           0.164354    0.684995   -0.872099 C.3       1 <1>        -0.011132 
      3 C           0.605683   -1.384011   -0.786710 C.3       1 <1>        -0.028001 
      4 C          -0.449561   -0.497473   -0.071548 C.3       1 <1>        -0.027338 
      5 C          -0.171478   -0.414470    1.464147 C.3       1 <1>        -0.035019 
      6 C          -0.428360    0.640744   -2.263841 C.2       1 <1>        -0.072635 
      7 C           2.210338    0.028429    0.554169 C.3       1 <1>        -0.046531 
      8 C           0.066748   -1.767423   -2.195965 C.3       1 <1>        -0.030875 
      9 C          -0.480145   -0.541749   -2.892852 C.2       1 <1>        -0.084447 
     10 C           1.194291    0.301944    1.697571 C.3       1 <1>        -0.049177 
     11 C           2.498052    0.044456   -2.000713 C.3       1 <1>        -0.058738 
     12 C          -1.326996    0.275784    2.269713 C.3       1 <1>        -0.043607 
     13 C          -0.926494    1.937449   -2.851301 C.3       1 <1>        -0.043497 
     14 C          -2.672391   -0.509078    2.191201 C.3       1 <1>        -0.062405 
     15 C          -0.953199    0.439321    3.774296 C.3       1 <1>        -0.062405 
     16 H           0.990409   -2.252384   -0.227214 H         1 <1>         0.031210 
     17 H           0.147642    1.682485   -0.408249 H         1 <1>         0.035375 
     18 H          -1.478882   -0.777005   -0.334745 H         1 <1>         0.031235 
     19 H          -0.087220   -1.450323    1.833017 H         1 <1>         0.030621 
     20 H           2.942616    0.852226    0.526291 H         1 <1>         0.027087 
     21 H           2.769583   -0.900313    0.753288 H         1 <1>         0.027087 
     22 H          -0.739518   -2.509785   -2.087303 H         1 <1>         0.031034 
     23 H           0.872584   -2.219121   -2.794798 H         1 <1>         0.031034 
     24 H          -0.902233   -0.636931   -3.893432 H         1 <1>         0.057172 
     25 H           1.642675    0.006540    2.660951 H         1 <1>         0.026828 
     26 H           1.022082    1.389792    1.739536 H         1 <1>         0.026828 
     27 H           2.044844   -0.044735   -2.996380 H         1 <1>         0.023534 
     28 H           2.967411    1.037755   -1.942153 H         1 <1>         0.023534 
     29 H           3.281402   -0.722733   -1.909297 H         1 <1>         0.023534 
     30 H          -1.497762    1.281810    1.848824 H         1 <1>         0.029823 
     31 H          -1.720657    2.348553   -2.210157 H         1 <1>         0.027445 
     32 H          -0.096682    2.658324   -2.901118 H         1 <1>         0.027445 
     33 H          -1.331448    1.800244   -3.865272 H         1 <1>         0.027445 
     34 H          -3.422053   -0.063317    2.863141 H         1 <1>         0.023242 
     35 H          -3.114208   -0.493233    1.185991 H         1 <1>         0.023242 
     36 H          -2.521091   -1.556311    2.494336 H         1 <1>         0.023242 
     37 H          -1.793138    0.866352    4.343913 H         1 <1>         0.023242 
     38 H          -0.099765    1.117478    3.917852 H         1 <1>         0.023242 
     39 H          -0.702608   -0.540218    4.209729 H         1 <1>         0.023242 
@<TRIPOS>BOND
     1    1    2 1    
     2    1    3 1    
     3    1    7 1    
     4    1   11 1    
     5    2    4 1    
     6    2    6 1    
     7    2   17 1    
     8    3    4 1    
     9    3    8 1    
    10    3   16 1    
    11    4    5 1    
    12    4   18 1    
    13    5   10 1    
    14    5   12 1    
    15    5   19 1    
    16    6    9 2    
    17    6   13 1    
    18    7   10 1    
    19    7   20 1    
    20    7   21 1    
    21    8    9 1    
    22    8   22 1    
    23    8   23 1    
    24    9   24 1    
    25   10   25 1    
    26   10   26 1    
    27   11   27 1    
    28   11   28 1    
    29   11   29 1    
    30   12   14 1    
    31   12   15 1    
    32   12   30 1    
    33   13   31 1    
    34   13   32 1    
    35   13   33 1    
    36   14   34 1    
    37   14   35 1    
    38   14   36 1    
    39   15   37 1    
    40   15   38 1    
    41   15   39 1    
@<TRIPOS>SUBSTRUCTURE
     1 ****        1 TEMP              0 ****  ****    0 ROOT 
@<TRIPOS>NORMAL
@<TRIPOS>FF_PBC
FORCE_FIELD_SETUP_FEATURE Force Field Setup information
v1.0  0 0.000000 0.000000 0.000000 0.000000 0.000000 0.000000 NONE 0 0 0 0 1 0 0 0 0 0 0 0 0
