@<TRIPOS>MOLECULE
MOL004897
   82    86     1     1     0
SMALL
GASTEIGER


@<TRIPOS>ATOM
      1 C           4.206588   -3.632423   -0.415302 C.3       1 <1>         0.053721 
      2 C           5.466367   -2.769524   -0.695462 C.3       1 <1>        -0.038057 
      3 C           5.057864   -1.383021   -1.264310 C.3       1 <1>        -0.046118 
      4 C           3.993164   -0.597117   -0.421749 C.3       1 <1>        -0.025453 
      5 C           2.763615   -1.473923   -0.056035 C.3       1 <1>        -0.013007 
      6 C           3.234988   -2.848955    0.526463 C.3       1 <1>        -0.031533 
      7 C           3.454794    0.571321   -1.329087 C.3       1 <1>        -0.046277 
      8 C           1.928851    0.912465   -1.172893 C.3       1 <1>        -0.042891 
      9 C           1.364203    0.808771    0.285564 C.3       1 <1>        -0.005120 
     10 C           1.568150   -0.708807    0.573838 C.2       1 <1>        -0.063388 
     11 C          -0.186991    1.241580    0.479918 C.3       1 <1>        -0.019373 
     12 C          -1.154181    0.021520    0.378114 C.3       1 <1>        -0.025735 
     13 C          -0.759476   -0.978913    1.506264 C.3       1 <1>        -0.030614 
     14 C           0.658627   -1.425199    1.256379 C.2       1 <1>        -0.083647 
     15 C          -0.626100    2.205862   -0.678352 C.3       1 <1>        -0.046267 
     16 C          -2.108664    2.682216   -0.749048 C.3       1 <1>        -0.048527 
     17 C          -3.105371    1.813137    0.061654 C.3       1 <1>        -0.025487 
     18 C          -2.719230    0.286086    0.132545 C.3       1 <1>        -0.024878 
     19 C          -4.626146    2.226647   -0.098932 C.3       1 <1>         0.020273 
     20 C          -5.425891    1.536615    1.053267 C.3       1 <1>         0.062974 
     21 C          -5.133405    0.014638    1.150948 C.3       1 <1>        -0.025746 
     22 C          -3.614471   -0.304245    1.276287 C.3       1 <1>        -0.044718 
     23 O           2.318650   -4.587006   -1.597165 O.3       1 <1>        -0.330857 
     24 C           4.642778   -4.967133    0.256429 C.3       1 <1>        -0.050480 
     25 C           3.524444   -4.025938   -1.718209 C.2       1 <1>         0.265560 
     26 O           4.031319   -3.851678   -2.812721 O.2       1 <1>        -0.264567 
     27 C          -3.076994   -0.459826   -1.198325 C.3       1 <1>        -0.059008 
     28 C          -0.403133    1.871076    1.911511 C.3       1 <1>        -0.058491 
     29 C           2.238819    1.862997    1.071933 C.3       1 <1>        -0.055324 
     30 C           4.695377   -0.143610    0.905188 C.3       1 <1>        -0.059017 
     31 C          -4.794523    3.778034    0.094251 C.3       1 <1>         0.052200 
     32 C          -5.305325    1.903547   -1.475119 C.3       1 <1>        -0.054830 
     33 O          -6.833688    1.756832    0.843637 O.3       1 <1>        -0.391162 
     34 O          -4.349451    4.484794   -1.082979 O.3       1 <1>        -0.394374 
     35 H           6.112926   -3.279346   -1.430218 H         1 <1>         0.027550 
     36 H           6.071443   -2.680790    0.217465 H         1 <1>         0.027550 
     37 H           5.958425   -0.757719   -1.379582 H         1 <1>         0.027098 
     38 H           4.674499   -1.580766   -2.275215 H         1 <1>         0.027098 
     39 H           2.332855   -1.775744   -1.025677 H         1 <1>         0.035135 
     40 H           2.400373   -3.548669    0.655223 H         1 <1>         0.028121 
     41 H           3.687772   -2.685423    1.514611 H         1 <1>         0.028121 
     42 H           4.117776    1.444908   -1.225236 H         1 <1>         0.027096 
     43 H           3.536850    0.322180   -2.400217 H         1 <1>         0.027096 
     44 H           1.836936    1.929572   -1.585028 H         1 <1>         0.027392 
     45 H           1.336402    0.239311   -1.817798 H         1 <1>         0.027392 
     46 H          -0.778378   -0.469286   -0.534580 H         1 <1>         0.031460 
     47 H          -1.362212   -1.888602    1.366394 H         1 <1>         0.031042 
     48 H          -0.908016   -0.650255    2.544518 H         1 <1>         0.031042 
     49 H           0.831189   -2.433131    1.619757 H         1 <1>         0.057198 
     50 H           0.023724    3.097618   -0.696216 H         1 <1>         0.027096 
     51 H          -0.486640    1.673672   -1.631880 H         1 <1>         0.027096 
     52 H          -2.436016    2.738166   -1.798432 H         1 <1>         0.026847 
     53 H          -2.130184    3.718133   -0.367784 H         1 <1>         0.026847 
     54 H          -2.956470    2.187333    1.073125 H         1 <1>         0.031291 
     55 H          -5.142534    1.999304    2.016098 H         1 <1>         0.059936 
     56 H          -5.646509   -0.369003    2.047624 H         1 <1>         0.029039 
     57 H          -5.582059   -0.521489    0.305123 H         1 <1>         0.029039 
     58 H          -3.552470   -1.402235    1.314726 H         1 <1>         0.027149 
     59 H          -3.280480    0.087491    2.251002 H         1 <1>         0.027149 
     60 H           1.941327   -4.801344   -2.444628 H         1 <1>         0.220226 
     61 H           3.775514   -5.618428    0.440539 H         1 <1>         0.023986 
     62 H           5.345878   -5.511084   -0.392706 H         1 <1>         0.023986 
     63 H           5.138848   -4.776540    1.219518 H         1 <1>         0.023986 
     64 H          -2.776653   -1.519473   -1.138343 H         1 <1>         0.023525 
     65 H          -4.137140   -0.481421   -1.440165 H         1 <1>         0.023525 
     66 H          -2.559118   -0.003862   -2.056378 H         1 <1>         0.023525 
     67 H           0.237091    1.404099    2.666695 H         1 <1>         0.023542 
     68 H          -0.228044    2.956318    1.918516 H         1 <1>         0.023542 
     69 H          -1.378873    1.713650    2.366712 H         1 <1>         0.023542 
     70 H           3.266625    2.005535    0.740990 H         1 <1>         0.023829 
     71 H           2.322115    1.640263    2.142397 H         1 <1>         0.023829 
     72 H           1.824203    2.872507    0.947426 H         1 <1>         0.023829 
     73 H           5.361145   -0.904074    1.324204 H         1 <1>         0.023525 
     74 H           5.319403    0.747907    0.742463 H         1 <1>         0.023525 
     75 H           3.978764    0.047573    1.712284 H         1 <1>         0.023525 
     76 H          -5.859732    4.024764    0.249396 H         1 <1>         0.056334 
     77 H          -4.248781    4.141870    0.981870 H         1 <1>         0.056334 
     78 H          -6.092249    2.637104   -1.708883 H         1 <1>         0.023667 
     79 H          -5.834818    0.942435   -1.492201 H         1 <1>         0.023667 
     80 H          -4.584574    1.925782   -2.303330 H         1 <1>         0.023667 
     81 H          -7.380768    1.377693    1.525098 H         1 <1>         0.209801 
     82 H          -4.452155    5.430245   -1.022184 H         1 <1>         0.209420 
@<TRIPOS>BOND
     1    1    2 1    
     2    1    6 1    
     3    1   24 1    
     4    1   25 1    
     5    2    3 1    
     6    2   35 1    
     7    2   36 1    
     8    3    4 1    
     9    3   37 1    
    10    3   38 1    
    11    4    5 1    
    12    4    7 1    
    13    4   30 1    
    14    5    6 1    
    15    5   10 1    
    16    5   39 1    
    17    6   40 1    
    18    6   41 1    
    19    7    8 1    
    20    7   42 1    
    21    7   43 1    
    22    8    9 1    
    23    8   44 1    
    24    8   45 1    
    25    9   10 1    
    26    9   11 1    
    27    9   29 1    
    28   10   14 2    
    29   11   12 1    
    30   11   15 1    
    31   11   28 1    
    32   12   13 1    
    33   12   18 1    
    34   12   46 1    
    35   13   14 1    
    36   13   47 1    
    37   13   48 1    
    38   14   49 1    
    39   15   16 1    
    40   15   50 1    
    41   15   51 1    
    42   16   17 1    
    43   16   52 1    
    44   16   53 1    
    45   17   18 1    
    46   17   19 1    
    47   17   54 1    
    48   18   22 1    
    49   18   27 1    
    50   19   20 1    
    51   19   31 1    
    52   19   32 1    
    53   20   21 1    
    54   20   33 1    
    55   20   55 1    
    56   21   22 1    
    57   21   56 1    
    58   21   57 1    
    59   22   58 1    
    60   22   59 1    
    61   25   23 1    
    62   23   60 1    
    63   24   61 1    
    64   24   62 1    
    65   24   63 1    
    66   25   26 2    
    67   27   64 1    
    68   27   65 1    
    69   27   66 1    
    70   28   67 1    
    71   28   68 1    
    72   28   69 1    
    73   29   70 1    
    74   29   71 1    
    75   29   72 1    
    76   30   73 1    
    77   30   74 1    
    78   30   75 1    
    79   31   34 1    
    80   31   76 1    
    81   31   77 1    
    82   32   78 1    
    83   32   79 1    
    84   32   80 1    
    85   33   81 1    
    86   34   82 1    
@<TRIPOS>SUBSTRUCTURE
     1 ****        1 TEMP              0 ****  ****    0 ROOT 
@<TRIPOS>NORMAL
@<TRIPOS>FF_PBC
FORCE_FIELD_SETUP_FEATURE Force Field Setup information
v1.0  0 0.000000 0.000000 0.000000 0.000000 0.000000 0.000000 NONE 0 0 0 0 1 0 0 0 0 0 0 0 0
