@<TRIPOS>MOLECULE
MOL002096
   39    41     1     1     0
SMALL
GASTEIGER


@<TRIPOS>ATOM
      1 C          -0.304708    0.568255    0.798561 C.3       1 <1>        -0.019354 
      2 C          -0.154623   -0.963867    0.672535 C.3       1 <1>        -0.029133 
      3 C           1.193830    0.940231    0.766026 C.3       1 <1>        -0.039545 
      4 C          -1.153338    0.604262    2.101610 C.3       1 <1>        -0.037641 
      5 C          -1.003493    1.317675   -0.386603 C.3       1 <1>        -0.028301 
      6 C           0.852371   -1.221749   -0.482196 C.3       1 <1>        -0.025033 
      7 C          -1.598406   -1.498696    0.774866 C.3       1 <1>        -0.048924 
      8 C           1.590251    0.166995   -0.532988 C.3       1 <1>        -0.014216 
      9 C          -2.205706   -0.526172    1.841748 C.3       1 <1>        -0.049653 
     10 C          -1.783439    1.965176    2.503921 C.3       1 <1>        -0.061892 
     11 C          -0.155486    1.498637   -1.622563 C.2       1 <1>        -0.084204 
     12 C           1.870903   -2.344707   -0.112261 C.3       1 <1>        -0.058999 
     13 C           0.132058   -1.655331   -1.795673 C.3       1 <1>        -0.058999 
     14 C           1.073027    0.975146   -1.697056 C.2       1 <1>        -0.072897 
     15 C           1.983309    1.143099   -2.891579 C.3       1 <1>        -0.043506 
     16 H           0.332221   -1.361371    1.583545 H         1 <1>         0.031165 
     17 H           2.687367    0.079316   -0.597913 H         1 <1>         0.035097 
     18 H           1.365824    2.026871    0.702780 H         1 <1>         0.027674 
     19 H           1.741748    0.555251    1.642080 H         1 <1>         0.027674 
     20 H          -0.497884    0.314366    2.943360 H         1 <1>         0.030364 
     21 H          -1.180773    2.355776   -0.072258 H         1 <1>         0.031293 
     22 H          -1.973786    0.879330   -0.656230 H         1 <1>         0.031293 
     23 H          -1.628973   -2.555550    1.089304 H         1 <1>         0.026837 
     24 H          -2.129120   -1.418263   -0.185349 H         1 <1>         0.026837 
     25 H          -2.434432   -1.051586    2.783755 H         1 <1>         0.026811 
     26 H          -3.147952   -0.104200    1.455897 H         1 <1>         0.026811 
     27 H          -2.243047    1.878364    3.501121 H         1 <1>         0.023259 
     28 H          -1.003339    2.741328    2.543060 H         1 <1>         0.023259 
     29 H          -2.570247    2.281360    1.803386 H         1 <1>         0.023259 
     30 H          -0.562296    2.073443   -2.455772 H         1 <1>         0.057180 
     31 H           2.573789   -2.510106   -0.943275 H         1 <1>         0.023525 
     32 H           1.343784   -3.289204    0.093147 H         1 <1>         0.023525 
     33 H           2.460335   -2.076512    0.778587 H         1 <1>         0.023525 
     34 H          -0.330779   -2.643762   -1.653573 H         1 <1>         0.023525 
     35 H           0.855938   -1.736773   -2.619306 H         1 <1>         0.023525 
     36 H          -0.664018   -0.965828   -2.104907 H         1 <1>         0.023525 
     37 H           2.338030    0.163356   -3.242968 H         1 <1>         0.027445 
     38 H           1.476876    1.647258   -3.728319 H         1 <1>         0.027445 
     39 H           2.854082    1.748286   -2.598303 H         1 <1>         0.027445 
@<TRIPOS>BOND
     1    1    2 1    
     2    1    3 1    
     3    1    4 1    
     4    1    5 1    
     5    2    6 1    
     6    2    7 1    
     7    2   16 1    
     8    3    8 1    
     9    3   18 1    
    10    3   19 1    
    11    4    9 1    
    12    4   10 1    
    13    4   20 1    
    14    5   11 1    
    15    5   21 1    
    16    5   22 1    
    17    6    8 1    
    18    6   12 1    
    19    6   13 1    
    20    7    9 1    
    21    7   23 1    
    22    7   24 1    
    23    8   14 1    
    24    8   17 1    
    25    9   25 1    
    26    9   26 1    
    27   10   27 1    
    28   10   28 1    
    29   10   29 1    
    30   11   14 2    
    31   11   30 1    
    32   12   31 1    
    33   12   32 1    
    34   12   33 1    
    35   13   34 1    
    36   13   35 1    
    37   13   36 1    
    38   14   15 1    
    39   15   37 1    
    40   15   38 1    
    41   15   39 1    
@<TRIPOS>SUBSTRUCTURE
     1 ****        1 TEMP              0 ****  ****    0 ROOT 
@<TRIPOS>NORMAL
@<TRIPOS>FF_PBC
FORCE_FIELD_SETUP_FEATURE Force Field Setup information
v1.0  0 0.000000 0.000000 0.000000 0.000000 0.000000 0.000000 NONE 0 0 0 0 1 0 0 0 0 0 0 0 0
