@<TRIPOS>MOLECULE
MOL004596
   82    86     1     1     0
SMALL
GASTEIGER


@<TRIPOS>ATOM
      1 O          -5.425583    3.444240   -2.757936 O.3       1 <1>        -0.391162 
      2 O           1.104574   -3.739246    2.833278 O.3       1 <1>        -0.390817 
      3 O          -2.798760    1.700606   -5.436354 O.3       1 <1>        -0.394374 
      4 O           4.136044   -3.549371    2.790438 O.3       1 <1>        -0.394059 
      5 C          -2.736259    0.506789   -0.914306 C.3       1 <1>        -0.021728 
      6 C           0.801391   -1.328536   -0.139005 C.3       1 <1>         0.001211 
      7 C           1.365562   -0.188315    0.692268 C.2       1 <1>        -0.041177 
      8 C          -0.420292    1.260535   -0.059803 C.2       1 <1>        -0.079573 
      9 C           2.234552   -0.347765    1.718972 C.2       1 <1>        -0.054572 
     10 C           0.852936    1.140173    0.328419 C.2       1 <1>        -0.061680 
     11 C           4.219281   -0.667395    3.989398 C.3       1 <1>        -0.046636 
     12 C           4.321413    1.869877    4.210483 C.3       1 <1>        -0.059522 
     13 C          -0.500654   -0.998129   -1.026200 C.3       1 <1>        -0.015850 
     14 C          -1.362708    0.071497   -0.246425 C.3       1 <1>        -0.010741 
     15 C          -2.420464    1.129537   -2.325597 C.3       1 <1>        -0.025215 
     16 C          -0.229632   -0.304645   -2.413858 C.3       1 <1>        -0.045983 
     17 C          -3.626436    1.805035   -3.089002 C.3       1 <1>         0.020282 
     18 C          -1.503431    0.198263   -3.176771 C.3       1 <1>        -0.048508 
     19 C          -3.463567    1.590674   -0.038723 C.3       1 <1>        -0.044446 
     20 C           0.536934   -2.501003    0.877383 C.3       1 <1>        -0.016023 
     21 C          -4.268080    2.861915   -2.127053 C.3       1 <1>         0.062974 
     22 C           2.510860   -1.705920    2.372704 C.3       1 <1>         0.041279 
     23 C          -4.670319    2.277619   -0.745549 C.3       1 <1>        -0.025737 
     24 C          -1.176754   -2.376882   -1.398336 C.3       1 <1>        -0.058207 
     25 C          -3.714168   -0.719965   -0.938021 C.3       1 <1>        -0.058735 
     26 C           1.113866   -2.390763    2.320880 C.3       1 <1>         0.067441 
     27 C           2.003011   -1.640886   -1.097975 C.3       1 <1>        -0.054936 
     28 C          -3.119745    2.591659   -4.349372 C.3       1 <1>         0.052200 
     29 C          -4.714307    0.819338   -3.625527 C.3       1 <1>        -0.054830 
     30 C           2.862951   -1.404021    3.870062 C.3       1 <1>        -0.038670 
     31 C           2.901131    0.860223    2.370697 C.3       1 <1>        -0.025318 
     32 C           4.215039    0.680932    3.202910 C.3       1 <1>        -0.031141 
     33 C           3.589918   -2.673129    1.782077 C.3       1 <1>         0.055890 
     34 C           5.465526    0.763854    2.269415 C.3       1 <1>        -0.059522 
     35 H          -5.839843    4.129728   -2.242848 H         1 <1>         0.209801 
     36 H           1.365676   -3.824648    3.742594 H         1 <1>         0.209815 
     37 H          -2.499308    2.148014   -6.222629 H         1 <1>         0.209420 
     38 H           4.807893   -4.143031    2.466730 H         1 <1>         0.209434 
     39 H          -0.689690    2.299046   -0.239416 H         1 <1>         0.057525 
     40 H           1.445439    2.052668    0.374345 H         1 <1>         0.061744 
     41 H           4.429447   -0.503785    5.059649 H         1 <1>         0.027081 
     42 H           5.019811   -1.329916    3.627476 H         1 <1>         0.027081 
     43 H           3.498492    1.838349    4.941777 H         1 <1>         0.023508 
     44 H           5.272197    1.828807    4.764594 H         1 <1>         0.023508 
     45 H           4.274160    2.835610    3.683512 H         1 <1>         0.023508 
     46 H          -1.574368   -0.310988    0.764324 H         1 <1>         0.035395 
     47 H          -1.767458    1.990902   -2.142865 H         1 <1>         0.031300 
     48 H           0.282267   -1.005638   -3.094112 H         1 <1>         0.027105 
     49 H           0.431596    0.568151   -2.296790 H         1 <1>         0.027105 
     50 H          -1.114913    0.753071   -4.045702 H         1 <1>         0.026847 
     51 H          -2.096751   -0.620534   -3.597083 H         1 <1>         0.026847 
     52 H          -3.806067    1.134976    0.905249 H         1 <1>         0.027158 
     53 H          -2.807701    2.420336    0.247209 H         1 <1>         0.027158 
     54 H           0.865540   -3.449076    0.424766 H         1 <1>         0.029895 
     55 H          -0.532739   -2.609336    1.095636 H         1 <1>         0.029895 
     56 H          -3.528533    3.663491   -1.946531 H         1 <1>         0.059936 
     57 H          -5.019754    3.105754   -0.104463 H         1 <1>         0.029039 
     58 H          -5.539915    1.620214   -0.867504 H         1 <1>         0.029039 
     59 H          -0.413169   -3.143357   -1.580290 H         1 <1>         0.023552 
     60 H          -1.850074   -2.778819   -0.634365 H         1 <1>         0.023552 
     61 H          -1.745756   -2.385414   -2.329669 H         1 <1>         0.023552 
     62 H          -3.641327   -1.305006   -1.858988 H         1 <1>         0.023534 
     63 H          -4.772105   -0.467100   -0.831686 H         1 <1>         0.023534 
     64 H          -3.534872   -1.370853   -0.072155 H         1 <1>         0.023534 
     65 H           0.420675   -1.774908    2.927800 H         1 <1>         0.060283 
     66 H           2.942458   -1.814600   -0.573732 H         1 <1>         0.023839 
     67 H           2.235253   -0.789290   -1.751108 H         1 <1>         0.023839 
     68 H           1.817024   -2.518860   -1.731562 H         1 <1>         0.023839 
     69 H          -2.245532    3.216590   -4.101322 H         1 <1>         0.056334 
     70 H          -3.913931    3.268176   -4.709497 H         1 <1>         0.056334 
     71 H          -5.321346    0.355864   -2.846160 H         1 <1>         0.023667 
     72 H          -5.421356    1.356607   -4.275978 H         1 <1>         0.023667 
     73 H          -4.267330    0.016578   -4.227104 H         1 <1>         0.023667 
     74 H           2.085129   -0.783713    4.345185 H         1 <1>         0.027536 
     75 H           2.935098   -2.320385    4.474967 H         1 <1>         0.027536 
     76 H           2.113324    1.282380    3.014237 H         1 <1>         0.031555 
     77 H           3.163012    1.625574    1.630894 H         1 <1>         0.031555 
     78 H           4.405907   -2.089138    1.333930 H         1 <1>         0.056653 
     79 H           3.168035   -3.343017    1.018600 H         1 <1>         0.056653 
     80 H           5.399578    0.029364    1.456157 H         1 <1>         0.023508 
     81 H           5.558397    1.760181    1.809961 H         1 <1>         0.023508 
     82 H           6.388644    0.572622    2.838410 H         1 <1>         0.023508 
@<TRIPOS>BOND
     1   21    1 1    
     2    1   35 1    
     3   26    2 1    
     4    2   36 1    
     5   28    3 1    
     6    3   37 1    
     7   33    4 1    
     8    4   38 1    
     9   14    5 1    
    10    5   15 1    
    11    5   19 1    
    12    5   25 1    
    13    7    6 1    
    14    6   13 1    
    15   20    6 1    
    16    6   27 1    
    17    9    7 2    
    18    7   10 1    
    19   10    8 2    
    20    8   14 1    
    21    8   39 1    
    22   22    9 1    
    23    9   31 1    
    24   10   40 1    
    25   30   11 1    
    26   11   32 1    
    27   11   41 1    
    28   11   42 1    
    29   32   12 1    
    30   12   43 1    
    31   12   44 1    
    32   12   45 1    
    33   13   14 1    
    34   13   16 1    
    35   13   24 1    
    36   14   46 1    
    37   15   17 1    
    38   18   15 1    
    39   15   47 1    
    40   16   18 1    
    41   16   48 1    
    42   16   49 1    
    43   17   21 1    
    44   17   28 1    
    45   17   29 1    
    46   18   50 1    
    47   18   51 1    
    48   19   23 1    
    49   19   52 1    
    50   19   53 1    
    51   26   20 1    
    52   20   54 1    
    53   20   55 1    
    54   23   21 1    
    55   21   56 1    
    56   22   26 1    
    57   22   30 1    
    58   22   33 1    
    59   23   57 1    
    60   23   58 1    
    61   24   59 1    
    62   24   60 1    
    63   24   61 1    
    64   25   62 1    
    65   25   63 1    
    66   25   64 1    
    67   26   65 1    
    68   27   66 1    
    69   27   67 1    
    70   27   68 1    
    71   28   69 1    
    72   28   70 1    
    73   29   71 1    
    74   29   72 1    
    75   29   73 1    
    76   30   74 1    
    77   30   75 1    
    78   31   32 1    
    79   31   76 1    
    80   31   77 1    
    81   32   34 1    
    82   33   78 1    
    83   33   79 1    
    84   34   80 1    
    85   34   81 1    
    86   34   82 1    
@<TRIPOS>SUBSTRUCTURE
     1 ****        6 TEMP              0 ****  ****    0 ROOT 
@<TRIPOS>NORMAL
@<TRIPOS>FF_PBC
FORCE_FIELD_SETUP_FEATURE Force Field Setup information
v1.0  0 0.000000 0.000000 0.000000 0.000000 0.000000 0.000000 NONE 0 0 0 0 1 0 0 0 0 0 0 0 0
