@<TRIPOS>MOLECULE
MOL000916
   26    27     1     1     0
SMALL
GASTEIGER


@<TRIPOS>ATOM
      1 C           0.833729   -0.671287    0.791022 C.3       1 <1>        -0.028339 
      2 C          -0.543861   -1.327945    0.533748 C.3       1 <1>        -0.028391 
      3 C          -1.741173   -0.419883    0.392448 C.2       1 <1>        -0.076234 
      4 C          -1.664305    0.913167    0.496905 C.2       1 <1>        -0.084728 
      5 C          -0.397434    1.682770    0.761502 C.3       1 <1>        -0.030902 
      6 C           0.911371    0.870565    0.903020 C.3       1 <1>        -0.028566 
      7 C           1.468761    0.157156   -0.355600 C.3       1 <1>        -0.028111 
      8 C           3.016624    0.088002   -0.450884 C.3       1 <1>        -0.059270 
      9 C           0.728850    0.295131   -1.713818 C.3       1 <1>        -0.059270 
     10 C          -3.056124   -1.117897    0.119789 C.3       1 <1>        -0.043778 
     11 H           1.570201   -1.245043    1.376880 H         1 <1>         0.031200 
     12 H          -0.747642   -1.980298    1.397126 H         1 <1>         0.031283 
     13 H          -0.449512   -1.968415   -0.356503 H         1 <1>         0.031283 
     14 H          -2.568331    1.513884    0.385850 H         1 <1>         0.057163 
     15 H          -0.551561    2.215058    1.713339 H         1 <1>         0.031033 
     16 H          -0.249335    2.437467   -0.026386 H         1 <1>         0.031033 
     17 H           1.694978    1.276969    1.562923 H         1 <1>         0.031192 
     18 H           3.298979   -0.779694   -1.065464 H         1 <1>         0.023516 
     19 H           3.386666    1.003145   -0.936657 H         1 <1>         0.023516 
     20 H           3.506682   -0.006956    0.530127 H         1 <1>         0.023516 
     21 H          -0.363793    0.341542   -1.655244 H         1 <1>         0.023516 
     22 H           1.080206    1.212604   -2.208530 H         1 <1>         0.023516 
     23 H           0.996954   -0.565749   -2.343856 H         1 <1>         0.023516 
     24 H          -2.978726   -1.691245   -0.816202 H         1 <1>         0.027436 
     25 H          -3.281408   -1.813405    0.942108 H         1 <1>         0.027436 
     26 H          -3.901094   -0.419638    0.022559 H         1 <1>         0.027436 
@<TRIPOS>BOND
     1    1    2 1    
     2    1    6 1    
     3    1    7 1    
     4    1   11 1    
     5    2    3 1    
     6    2   12 1    
     7    2   13 1    
     8    3    4 2    
     9    3   10 1    
    10    4    5 1    
    11    4   14 1    
    12    5    6 1    
    13    5   15 1    
    14    5   16 1    
    15    6    7 1    
    16    6   17 1    
    17    7    8 1    
    18    7    9 1    
    19    8   18 1    
    20    8   19 1    
    21    8   20 1    
    22    9   21 1    
    23    9   22 1    
    24    9   23 1    
    25   10   24 1    
    26   10   25 1    
    27   10   26 1    
@<TRIPOS>SUBSTRUCTURE
     1 ****        1 TEMP              0 ****  ****    0 ROOT 
@<TRIPOS>NORMAL
@<TRIPOS>FF_PBC
FORCE_FIELD_SETUP_FEATURE Force Field Setup information
v1.0  0 0.000000 0.000000 0.000000 0.000000 0.000000 0.000000 NONE 0 0 0 0 1 0 0 0 0 0 0 0 0
