@<TRIPOS>MOLECULE
MOL000601
   28    28     1     1     0
SMALL
GASTEIGER


@<TRIPOS>ATOM
      1 C          -0.210024    0.497398   -0.384498 C.ar      1 <1>         0.079469 
      2 C           0.417195   -0.756947    0.110043 C.ar      1 <1>        -0.014832 
      3 C          -1.621639    0.612304   -0.431193 C.ar      1 <1>        -0.028499 
      4 O           0.591497    1.559497   -0.809605 O.3       1 <1>        -0.347624 
      5 C          -0.432858   -1.812107    0.564950 C.ar      1 <1>        -0.055629 
      6 C           1.948237   -0.942053    0.133008 C.3       1 <1>        -0.019078 
      7 C          -2.494872   -0.488626    0.040203 C.ar      1 <1>        -0.047993 
      8 C           0.439004    2.800695   -0.098126 C.3       1 <1>         0.043038 
      9 C          -1.907077   -1.669438    0.532306 C.ar      1 <1>        -0.058415 
     10 C           2.528150   -0.895013   -1.305614 C.3       1 <1>        -0.058569 
     11 C           2.641921    0.088321    1.063003 C.3       1 <1>        -0.058569 
     12 C          -4.016230   -0.315802   -0.016806 C.3       1 <1>        -0.039629 
     13 H          -2.078895    1.515503   -0.816445 H         1 <1>         0.064600 
     14 H          -0.010085   -2.738727    0.938276 H         1 <1>         0.062125 
     15 H           2.180398   -1.941548    0.539916 H         1 <1>         0.034425 
     16 H           1.206567    3.495696   -0.468845 H         1 <1>         0.052870 
     17 H          -0.547008    3.257300   -0.265315 H         1 <1>         0.052870 
     18 H           0.589206    2.653566    0.982691 H         1 <1>         0.052870 
     19 H          -2.527616   -2.484648    0.889066 H         1 <1>         0.062030 
     20 H           3.607175   -1.114564   -1.289982 H         1 <1>         0.023546 
     21 H           2.026972   -1.645905   -1.936325 H         1 <1>         0.023546 
     22 H           2.384775    0.095102   -1.761803 H         1 <1>         0.023546 
     23 H           3.706328   -0.166773    1.185746 H         1 <1>         0.023546 
     24 H           2.163608    0.082149    2.054798 H         1 <1>         0.023546 
     25 H           2.585234    1.103831    0.649022 H         1 <1>         0.023546 
     26 H          -4.544631   -1.254609    0.207250 H         1 <1>         0.027754 
     27 H          -4.308117    0.019116   -1.023489 H         1 <1>         0.027754 
     28 H          -4.317111    0.446478    0.717167 H         1 <1>         0.027754 
@<TRIPOS>BOND
     1    1    2 1    
     2    1    3 2    
     3    1    4 1    
     4    2    5 2    
     5    2    6 1    
     6    3    7 1    
     7    3   13 1    
     8    4    8 1    
     9    5    9 1    
    10    5   14 1    
    11    6   10 1    
    12    6   11 1    
    13    6   15 1    
    14    7    9 2    
    15    7   12 1    
    16    8   16 1    
    17    8   17 1    
    18    8   18 1    
    19    9   19 1    
    20   10   20 1    
    21   10   21 1    
    22   10   22 1    
    23   11   23 1    
    24   11   24 1    
    25   11   25 1    
    26   12   26 1    
    27   12   27 1    
    28   12   28 1    
@<TRIPOS>SUBSTRUCTURE
     1 ****        1 TEMP              0 ****  ****    0 ROOT 
@<TRIPOS>NORMAL
@<TRIPOS>FF_PBC
FORCE_FIELD_SETUP_FEATURE Force Field Setup information
v1.0  0 0.000000 0.000000 0.000000 0.000000 0.000000 0.000000 NONE 0 0 0 0 1 0 0 0 0 0 0 0 0
