@<TRIPOS>MOLECULE
MOL002483
   46    46     1     1     0
SMALL
GASTEIGER


@<TRIPOS>ATOM
      1 C           0.926014   -2.028721    0.672258 C.3       1 <1>        -0.027587 
      2 C           0.226482   -0.748138    0.142497 C.3       1 <1>        -0.048677 
      3 C           1.245408    0.271482   -0.438486 C.3       1 <1>        -0.046080 
      4 C           0.545990    1.577564   -0.908165 C.3       1 <1>         0.005831 
      5 C           0.038861    2.435792    0.228161 C.2       1 <1>         0.133372 
      6 C          -1.116030    3.375266   -0.029384 C.3       1 <1>         0.005821 
      7 C          -0.884814    4.348617   -1.219077 C.3       1 <1>        -0.046384 
      8 C           0.349787    5.265967   -0.998235 C.3       1 <1>        -0.052922 
      9 C           0.554128    6.240601   -2.191914 C.3       1 <1>        -0.055900 
     10 C           1.833665    7.098603   -2.011132 C.3       1 <1>        -0.065276 
     11 O           0.550192    2.374680    1.334644 O.2       1 <1>        -0.297411 
     12 C          -0.023174   -3.159271    1.107225 C.ar      1 <1>        -0.044760 
     13 C           0.575210   -4.485228    1.403002 C.ar      1 <1>        -0.025976 
     14 C          -0.219757   -5.572002    1.791207 C.ar      1 <1>         0.105659 
     15 C          -1.690634   -5.416096    1.913769 C.ar      1 <1>         0.102451 
     16 C          -2.270698   -4.153082    1.645504 C.ar      1 <1>        -0.029141 
     17 C          -1.425938   -3.005255    1.237293 C.ar      1 <1>        -0.055981 
     18 O           0.387726   -6.797725    2.065786 O.3       1 <1>        -0.345341 
     19 C           0.205866   -7.795943    1.048996 C.3       1 <1>         0.043136 
     20 O          -2.478213   -6.510320    2.290621 O.3       1 <1>        -0.357269 
     21 H           1.574815   -2.435946   -0.120318 H         1 <1>         0.031318 
     22 H           1.560732   -1.771713    1.533594 H         1 <1>         0.031318 
     23 H          -0.330396   -0.267430    0.961690 H         1 <1>         0.026850 
     24 H          -0.478209   -1.028911   -0.655149 H         1 <1>         0.026850 
     25 H           1.753727   -0.187365   -1.303344 H         1 <1>         0.026936 
     26 H           2.012728    0.511538    0.313785 H         1 <1>         0.026936 
     27 H           1.278494    2.181475   -1.465862 H         1 <1>         0.034152 
     28 H          -0.277195    1.321454   -1.593874 H         1 <1>         0.034152 
     29 H          -2.018110    2.771494   -0.215825 H         1 <1>         0.034152 
     30 H          -1.297977    3.973417    0.878714 H         1 <1>         0.034152 
     31 H          -1.781509    4.979953   -1.337191 H         1 <1>         0.026927 
     32 H          -0.758356    3.772204   -2.149256 H         1 <1>         0.026927 
     33 H           1.250997    4.644141   -0.884101 H         1 <1>         0.026530 
     34 H           0.218591    5.847770   -0.071132 H         1 <1>         0.026530 
     35 H          -0.317638    6.911206   -2.279549 H         1 <1>         0.026265 
     36 H           0.640027    5.665799   -3.129869 H         1 <1>         0.026265 
     37 H           1.971703    7.759697   -2.880970 H         1 <1>         0.022978 
     38 H           2.717585    6.448966   -1.921194 H         1 <1>         0.022978 
     39 H           1.757307    7.720313   -1.105763 H         1 <1>         0.022978 
     40 H           1.646712   -4.630076    1.319790 H         1 <1>         0.064684 
     41 H          -3.343798   -4.011180    1.736992 H         1 <1>         0.064412 
     42 H          -1.912235   -2.057212    1.041061 H         1 <1>         0.062110 
     43 H           0.709188   -8.716140    1.381099 H         1 <1>         0.052871 
     44 H           0.662609   -7.466690    0.102591 H         1 <1>         0.052871 
     45 H          -0.860288   -8.018111    0.885398 H         1 <1>         0.052871 
     46 H          -3.408155   -6.326191    2.349796 H         1 <1>         0.217422 
@<TRIPOS>BOND
     1    1    2 1    
     2    1   12 1    
     3    1   21 1    
     4    1   22 1    
     5    2    3 1    
     6    2   23 1    
     7    2   24 1    
     8    3    4 1    
     9    3   25 1    
    10    3   26 1    
    11    4    5 1    
    12    4   27 1    
    13    4   28 1    
    14    5    6 1    
    15    5   11 2    
    16    6    7 1    
    17    6   29 1    
    18    6   30 1    
    19    7    8 1    
    20    7   31 1    
    21    7   32 1    
    22    8    9 1    
    23    8   33 1    
    24    8   34 1    
    25    9   10 1    
    26    9   35 1    
    27    9   36 1    
    28   10   37 1    
    29   10   38 1    
    30   10   39 1    
    31   12   13 1    
    32   12   17 2    
    33   13   14 2    
    34   13   40 1    
    35   14   15 1    
    36   14   18 1    
    37   15   16 2    
    38   15   20 1    
    39   16   17 1    
    40   16   41 1    
    41   17   42 1    
    42   18   19 1    
    43   19   43 1    
    44   19   44 1    
    45   19   45 1    
    46   20   46 1    
@<TRIPOS>SUBSTRUCTURE
     1 ****        1 TEMP              0 ****  ****    0 ROOT 
@<TRIPOS>NORMAL
@<TRIPOS>FF_PBC
FORCE_FIELD_SETUP_FEATURE Force Field Setup information
v1.0  0 0.000000 0.000000 0.000000 0.000000 0.000000 0.000000 NONE 0 0 0 0 1 0 0 0 0 0 0 0 0
