@<TRIPOS>MOLECULE
MOL006986
   40    43     1     1     0
SMALL
GASTEIGER


@<TRIPOS>ATOM
      1 O           0.486857   -2.727547   -0.119876 O.3       1 <1>        -0.344722 
      2 O           3.228114   -2.095637   -0.278467 O.3       1 <1>        -0.345313 
      3 N          -0.102394    3.486107   -0.210849 N.3       1 <1>        -0.308687 
      4 C          -0.687215    2.183035    0.175958 C.3       1 <1>         0.037795 
      5 C           0.343361    1.055570    0.068331 C.ar      1 <1>        -0.016629 
      6 C          -1.884455    1.835837   -0.742518 C.3       1 <1>        -0.007488 
      7 C           1.787136    1.372968   -0.049854 C.ar      1 <1>        -0.038312 
      8 C          -0.104638   -0.306313    0.073992 C.ar      1 <1>         0.019817 
      9 C           2.258543    2.828947   -0.074784 C.3       1 <1>        -0.014675 
     10 C           1.170136    3.774371    0.484035 C.3       1 <1>         0.000439 
     11 C          -2.486599    0.512666   -0.261407 C.ar      1 <1>        -0.037778 
     12 C          -1.566041   -0.556094    0.200065 C.ar      1 <1>        -0.011781 
     13 C           0.897196   -1.395259   -0.064875 C.ar      1 <1>         0.113655 
     14 C           2.721090    0.328547   -0.147823 C.ar      1 <1>        -0.025582 
     15 C           2.274548   -1.082069   -0.159057 C.ar      1 <1>         0.106528 
     16 C          -3.887810    0.311110   -0.232277 C.ar      1 <1>        -0.057935 
     17 C          -2.119412   -1.752137    0.742860 C.ar      1 <1>        -0.053678 
     18 C          -4.444760   -0.957212    0.292530 C.ar      1 <1>        -0.061465 
     19 C          -3.588221   -1.949618    0.774788 C.ar      1 <1>        -0.061166 
     20 C           0.356564   -3.227466   -1.458941 C.3       1 <1>         0.043161 
     21 C           3.449191   -2.846416    0.926406 C.3       1 <1>         0.043136 
     22 H          -1.030629    2.220599    1.224694 H         1 <1>         0.051341 
     23 H          -1.544177    1.727577   -1.783921 H         1 <1>         0.033173 
     24 H          -2.632073    2.642866   -0.695004 H         1 <1>         0.033173 
     25 H           3.189994    2.944688    0.502658 H         1 <1>         0.032559 
     26 H           2.458713    3.086275   -1.126916 H         1 <1>         0.032559 
     27 H          -0.816287    4.284817   -0.042281 H         1 <1>         0.122527 
     28 H           1.063042    3.628060    1.572264 H         1 <1>         0.042733 
     29 H           1.478774    4.818777    0.305805 H         1 <1>         0.042733 
     30 H           3.780749    0.544569   -0.225641 H         1 <1>         0.064694 
     31 H          -4.562036    1.085187   -0.583358 H         1 <1>         0.062048 
     32 H          -1.485583   -2.535250    1.138614 H         1 <1>         0.062371 
     33 H          -5.519317   -1.110257    0.306175 H         1 <1>         0.061767 
     34 H          -3.997516   -2.873588    1.171145 H         1 <1>         0.061776 
     35 H          -0.396398   -2.648822   -2.016940 H         1 <1>         0.052871 
     36 H           0.028561   -4.275779   -1.405320 H         1 <1>         0.052871 
     37 H           1.320227   -3.184963   -1.990568 H         1 <1>         0.052871 
     38 H           4.226439   -3.597678    0.723989 H         1 <1>         0.052871 
     39 H           2.536481   -3.367085    1.253865 H         1 <1>         0.052871 
     40 H           3.799346   -2.184484    1.733703 H         1 <1>         0.052871 
@<TRIPOS>BOND
     1   13    1 1    
     2    1   20 1    
     3   15    2 1    
     4    2   21 1    
     5    4    3 1    
     6    3   10 1    
     7    3   27 1    
     8    5    4 1    
     9    4    6 1    
    10    4   22 1    
    11    5    7 1    
    12    8    5 2    
    13   11    6 1    
    14    6   23 1    
    15    6   24 1    
    16    7    9 1    
    17    7   14 2    
    18    8   12 1    
    19   13    8 1    
    20    9   10 1    
    21    9   25 1    
    22    9   26 1    
    23   10   28 1    
    24   10   29 1    
    25   12   11 1    
    26   11   16 2    
    27   12   17 2    
    28   13   15 2    
    29   14   15 1    
    30   14   30 1    
    31   16   18 1    
    32   16   31 1    
    33   17   19 1    
    34   17   32 1    
    35   18   19 2    
    36   18   33 1    
    37   19   34 1    
    38   20   35 1    
    39   20   36 1    
    40   20   37 1    
    41   21   38 1    
    42   21   39 1    
    43   21   40 1    
@<TRIPOS>SUBSTRUCTURE
     1 ****        3 TEMP              0 ****  ****    0 ROOT 
@<TRIPOS>NORMAL
@<TRIPOS>FF_PBC
FORCE_FIELD_SETUP_FEATURE Force Field Setup information
v1.0  0 0.000000 0.000000 0.000000 0.000000 0.000000 0.000000 NONE 0 0 0 0 1 0 0 0 0 0 0 0 0
