@<TRIPOS>MOLECULE
MOL001850
   24    24     1     1     0
SMALL
GASTEIGER


@<TRIPOS>ATOM
      1 C          -0.681241   -0.697069    0.271309 C.3       1 <1>        -0.024243 
      2 C           0.702350   -0.629254   -0.440334 C.3       1 <1>        -0.026037 
      3 C          -1.670281    0.250841   -0.465280 C.3       1 <1>         0.015302 
      4 C          -1.225563   -2.154978    0.222462 C.3       1 <1>        -0.059125 
      5 C          -0.532767   -0.263027    1.761107 C.3       1 <1>        -0.059125 
      6 C           1.216322    0.787558   -0.564064 C.2       1 <1>        -0.068820 
      7 C          -1.086942    1.632363   -0.578707 C.2       1 <1>         0.156561 
      8 C           0.371644    1.825838   -0.622369 C.2       1 <1>        -0.020205 
      9 C           2.716905    0.957183   -0.626073 C.3       1 <1>        -0.043371 
     10 O          -1.825815    2.602188   -0.635041 O.2       1 <1>        -0.292664 
     11 H           0.630694   -1.039611   -1.459690 H         1 <1>         0.031530 
     12 H           1.420514   -1.246378    0.122490 H         1 <1>         0.031530 
     13 H          -2.623831    0.294895    0.084131 H         1 <1>         0.035023 
     14 H          -1.876025   -0.106742   -1.485819 H         1 <1>         0.035023 
     15 H          -1.341613   -2.495507   -0.817950 H         1 <1>         0.023518 
     16 H          -0.535577   -2.843109    0.734572 H         1 <1>         0.023518 
     17 H          -2.207338   -2.217263    0.716502 H         1 <1>         0.023518 
     18 H           0.161635   -0.933406    2.290375 H         1 <1>         0.023518 
     19 H          -0.146661    0.763120    1.848701 H         1 <1>         0.023518 
     20 H          -1.505772   -0.305408    2.274039 H         1 <1>         0.023518 
     21 H           0.739324    2.848035   -0.707555 H         1 <1>         0.065173 
     22 H           3.015019    2.004705   -0.784531 H         1 <1>         0.027446 
     23 H           3.119019    0.355091   -1.454791 H         1 <1>         0.027446 
     24 H           3.166401    0.609839    0.316417 H         1 <1>         0.027446 
@<TRIPOS>BOND
     1    1    2 1    
     2    1    3 1    
     3    1    4 1    
     4    1    5 1    
     5    2    6 1    
     6    2   11 1    
     7    2   12 1    
     8    3    7 1    
     9    3   13 1    
    10    3   14 1    
    11    4   15 1    
    12    4   16 1    
    13    4   17 1    
    14    5   18 1    
    15    5   19 1    
    16    5   20 1    
    17    6    8 2    
    18    6    9 1    
    19    7    8 1    
    20    7   10 2    
    21    8   21 1    
    22    9   22 1    
    23    9   23 1    
    24    9   24 1    
@<TRIPOS>SUBSTRUCTURE
     1 ****        1 TEMP              0 ****  ****    0 ROOT 
@<TRIPOS>NORMAL
@<TRIPOS>FF_PBC
FORCE_FIELD_SETUP_FEATURE Force Field Setup information
v1.0  0 0.000000 0.000000 0.000000 0.000000 0.000000 0.000000 NONE 0 0 0 0 1 0 0 0 0 0 0 0 0
