@<TRIPOS>MOLECULE
MOL004051
   43    44     1     1     0
SMALL
GASTEIGER


@<TRIPOS>ATOM
      1 O           2.629054   -2.351376   -0.606378 O.3       1 <1>        -0.388562 
      2 O           1.033500    2.183207   -1.544393 O.3       1 <1>        -0.388562 
      3 C           0.851878   -0.688447   -0.875867 C.3       1 <1>        -0.006433 
      4 C           1.675082    0.342883   -0.048773 C.3       1 <1>        -0.006863 
      5 C           1.280484   -2.033747   -0.205532 C.3       1 <1>         0.066494 
      6 C           1.304698    1.863566   -0.167800 C.3       1 <1>         0.066486 
      7 C           1.845369   -0.250673    1.386374 C.3       1 <1>        -0.044673 
      8 C           1.370728   -1.727108    1.305779 C.3       1 <1>        -0.023641 
      9 C          -0.673865   -0.392461   -1.024575 C.3       1 <1>        -0.040742 
     10 C          -1.419487    0.228795    0.191531 C.3       1 <1>        -0.019971 
     11 C           0.057556    2.336056    0.646048 C.3       1 <1>        -0.023453 
     12 C          -1.322037    1.779961    0.202728 C.3       1 <1>        -0.043923 
     13 C           0.394659   -3.276536   -0.498233 C.3       1 <1>        -0.035807 
     14 C           2.518682    2.722289    0.307144 C.3       1 <1>        -0.035808 
     15 C          -2.878626   -0.211171    0.177091 C.2       1 <1>        -0.076599 
     16 C          -3.757522    0.332188   -0.931515 C.3       1 <1>        -0.043777 
     17 C          -3.371857   -1.048066    1.102163 C.2       1 <1>        -0.099447 
     18 H           1.217348   -0.730063   -1.919537 H         1 <1>         0.033210 
     19 H           2.679743    0.258324   -0.504613 H         1 <1>         0.033193 
     20 H           1.267975    0.259951    2.166583 H         1 <1>         0.026981 
     21 H           2.903725   -0.205722    1.697473 H         1 <1>         0.026981 
     22 H           2.063799   -2.418589    1.812624 H         1 <1>         0.029292 
     23 H           0.383918   -1.855880    1.774753 H         1 <1>         0.029292 
     24 H          -1.174707   -1.320844   -1.332046 H         1 <1>         0.027462 
     25 H          -0.805173    0.295129   -1.876465 H         1 <1>         0.027462 
     26 H          -0.968567   -0.122777    1.125983 H         1 <1>         0.034553 
     27 H          -0.021514    3.430011    0.525406 H         1 <1>         0.029300 
     28 H           0.191373    2.163651    1.722476 H         1 <1>         0.029300 
     29 H          -2.070771    2.164040    0.917363 H         1 <1>         0.027186 
     30 H          -1.575999    2.195098   -0.786184 H         1 <1>         0.027186 
     31 H           0.293602   -3.423278   -1.584602 H         1 <1>         0.025730 
     32 H           0.874346   -4.169104   -0.068222 H         1 <1>         0.025730 
     33 H          -0.606364   -3.185146   -0.051019 H         1 <1>         0.025730 
     34 H           2.731681    2.530633    1.370161 H         1 <1>         0.025730 
     35 H           3.425765    2.496680   -0.274418 H         1 <1>         0.025730 
     36 H           2.309918    3.796186    0.180742 H         1 <1>         0.025730 
     37 H           2.712432   -2.571220   -1.528076 H         1 <1>         0.210159 
     38 H           1.759882    1.990149   -2.127233 H         1 <1>         0.210159 
     39 H          -3.927453    1.408766   -0.786354 H         1 <1>         0.027436 
     40 H          -3.287921    0.175572   -1.913088 H         1 <1>         0.027436 
     41 H          -4.742067   -0.159081   -0.955281 H         1 <1>         0.027436 
     42 H          -4.415503   -1.359823    1.092454 H         1 <1>         0.053440 
     43 H          -2.755767   -1.453724    1.903826 H         1 <1>         0.053440 
@<TRIPOS>BOND
     1    5    1 1    
     2    1   37 1    
     3    6    2 1    
     4    2   38 1    
     5    4    3 1    
     6    3    5 1    
     7    3    9 1    
     8    3   18 1    
     9    4    6 1    
    10    4    7 1    
    11    4   19 1    
    12    5    8 1    
    13    5   13 1    
    14    6   11 1    
    15    6   14 1    
    16    7    8 1    
    17    7   20 1    
    18    7   21 1    
    19    8   22 1    
    20    8   23 1    
    21    9   10 1    
    22    9   24 1    
    23    9   25 1    
    24   10   12 1    
    25   10   15 1    
    26   10   26 1    
    27   11   12 1    
    28   11   27 1    
    29   11   28 1    
    30   12   29 1    
    31   12   30 1    
    32   13   31 1    
    33   13   32 1    
    34   13   33 1    
    35   14   34 1    
    36   14   35 1    
    37   14   36 1    
    38   15   16 1    
    39   15   17 2    
    40   16   39 1    
    41   16   40 1    
    42   16   41 1    
    43   17   42 1    
    44   17   43 1    
@<TRIPOS>SUBSTRUCTURE
     1 ****        3 TEMP              0 ****  ****    0 ROOT 
@<TRIPOS>NORMAL
@<TRIPOS>FF_PBC
FORCE_FIELD_SETUP_FEATURE Force Field Setup information
v1.0  0 0.000000 0.000000 0.000000 0.000000 0.000000 0.000000 NONE 0 0 0 0 1 0 0 0 0 0 0 0 0
