@<TRIPOS>MOLECULE
MOL001579
   43    43     1     1     0
SMALL
GASTEIGER


@<TRIPOS>ATOM
      1 C           0.947587    1.955928   -0.607753 C.2       1 <1>        -0.085088 
      2 C           0.800599    1.198598   -1.710482 C.2       1 <1>        -0.087426 
      3 C          -0.461880    0.617897   -2.326610 C.3       1 <1>        -0.032161 
      4 C          -0.515431   -0.943882   -2.207932 C.3       1 <1>        -0.040444 
      5 C          -1.034860   -1.568562   -3.537582 C.3       1 <1>        -0.062136 
      6 C          -1.396351   -1.483034   -1.027327 C.3       1 <1>        -0.049922 
      7 C          -1.208707   -0.827115    0.378059 C.3       1 <1>        -0.049724 
      8 C           0.260221   -0.752865    0.901539 C.3       1 <1>        -0.038678 
      9 C           0.831942   -2.146963    1.345850 C.3       1 <1>        -0.043885 
     10 C           0.281926   -2.689803    2.698694 C.3       1 <1>        -0.062414 
     11 C           2.388588   -2.163180    1.397903 C.3       1 <1>        -0.062414 
     12 C           0.496855    0.392945    1.940758 C.3       1 <1>        -0.049454 
     13 C          -0.170868    1.796835    1.726180 C.3       1 <1>        -0.046758 
     14 C          -0.140772    2.465478    0.308145 C.3       1 <1>        -0.025726 
     15 C           0.003322    4.010180    0.426329 C.3       1 <1>        -0.058955 
     16 H           1.962561    2.238518   -0.322600 H         1 <1>         0.057165 
     17 H           1.720712    0.940265   -2.240211 H         1 <1>         0.056913 
     18 H          -0.394154    0.907666   -3.387902 H         1 <1>         0.030991 
     19 H          -1.408516    1.042821   -1.970456 H         1 <1>         0.030991 
     20 H           0.511739   -1.332444   -2.093516 H         1 <1>         0.030107 
     21 H          -2.034917   -1.177401   -3.780045 H         1 <1>         0.023251 
     22 H          -1.099367   -2.664728   -3.457680 H         1 <1>         0.023251 
     23 H          -0.357013   -1.331674   -4.373157 H         1 <1>         0.023251 
     24 H          -1.234187   -2.569424   -0.940104 H         1 <1>         0.026803 
     25 H          -2.456149   -1.346192   -1.305030 H         1 <1>         0.026803 
     26 H          -1.638676    0.174210    0.295455 H         1 <1>         0.026810 
     27 H          -1.838153   -1.356638    1.107744 H         1 <1>         0.026810 
     28 H           0.880950   -0.491286    0.044898 H         1 <1>         0.030327 
     29 H           0.551018   -2.877175    0.568724 H         1 <1>         0.029814 
     30 H           0.567555   -3.748047    2.815664 H         1 <1>         0.023242 
     31 H          -0.813694   -2.631208    2.755459 H         1 <1>         0.023242 
     32 H           0.706219   -2.142170    3.553570 H         1 <1>         0.023242 
     33 H           2.752298   -3.184541    1.593627 H         1 <1>         0.023242 
     34 H           2.823528   -1.829480    0.442099 H         1 <1>         0.023242 
     35 H           2.766590   -1.511980    2.199220 H         1 <1>         0.023242 
     36 H           1.584650    0.559392    2.014475 H         1 <1>         0.026819 
     37 H           0.150794    0.047993    2.926773 H         1 <1>         0.026819 
     38 H          -1.221695    1.754800    2.061529 H         1 <1>         0.027089 
     39 H           0.337178    2.471342    2.436803 H         1 <1>         0.027089 
     40 H          -1.121250    2.340284   -0.170373 H         1 <1>         0.034025 
     41 H          -0.039780    4.480191   -0.569118 H         1 <1>         0.023536 
     42 H          -0.810303    4.425798    1.041686 H         1 <1>         0.023536 
     43 H           0.964253    4.279649    0.891566 H         1 <1>         0.023536 
@<TRIPOS>BOND
     1    1    2 2    
     2    1   14 1    
     3    1   16 1    
     4    2    3 1    
     5    2   17 1    
     6    3    4 1    
     7    3   18 1    
     8    3   19 1    
     9    4    5 1    
    10    4    6 1    
    11    4   20 1    
    12    5   21 1    
    13    5   22 1    
    14    5   23 1    
    15    6    7 1    
    16    6   24 1    
    17    6   25 1    
    18    7    8 1    
    19    7   26 1    
    20    7   27 1    
    21    8    9 1    
    22    8   12 1    
    23    8   28 1    
    24    9   10 1    
    25    9   11 1    
    26    9   29 1    
    27   10   30 1    
    28   10   31 1    
    29   10   32 1    
    30   11   33 1    
    31   11   34 1    
    32   11   35 1    
    33   12   13 1    
    34   12   36 1    
    35   12   37 1    
    36   13   14 1    
    37   13   38 1    
    38   13   39 1    
    39   14   15 1    
    40   14   40 1    
    41   15   41 1    
    42   15   42 1    
    43   15   43 1    
@<TRIPOS>SUBSTRUCTURE
     1 ****        1 TEMP              0 ****  ****    0 ROOT 
@<TRIPOS>NORMAL
@<TRIPOS>FF_PBC
FORCE_FIELD_SETUP_FEATURE Force Field Setup information
v1.0  0 0.000000 0.000000 0.000000 0.000000 0.000000 0.000000 NONE 0 0 0 0 1 0 0 0 0 0 0 0 0
