@<TRIPOS>MOLECULE
MOL004709
   27    27     1     1     0
SMALL
GASTEIGER


@<TRIPOS>ATOM
      1 O          -2.108752   -1.536643   -1.175959 O.3       1 <1>        -0.387492 
      2 C           0.344152    1.252760   -0.553663 C.3       1 <1>        -0.014346 
      3 C          -0.857120    0.496358   -1.173113 C.3       1 <1>        -0.016212 
      4 C          -1.083891   -0.845326   -0.436194 C.3       1 <1>         0.076552 
      5 C           1.618026    0.395525   -0.787771 C.3       1 <1>        -0.027830 
      6 C           0.205060   -1.639656   -0.334875 C.2       1 <1>        -0.048428 
      7 C           1.409702   -1.072056   -0.502316 C.2       1 <1>        -0.082049 
      8 C           0.075205    1.627696    0.897048 C.2       1 <1>        -0.076228 
      9 C           0.072058   -3.114357   -0.022665 C.3       1 <1>        -0.041374 
     10 C          -0.739125    2.886422    1.118830 C.3       1 <1>        -0.043767 
     11 C           0.518484    0.910971    1.940903 C.2       1 <1>        -0.099436 
     12 H          -2.416227   -2.334198   -0.758727 H         1 <1>         0.210218 
     13 H           0.494198    2.195550   -1.108591 H         1 <1>         0.034929 
     14 H          -1.776698    1.100881   -1.131249 H         1 <1>         0.029910 
     15 H          -0.646594    0.282570   -2.234095 H         1 <1>         0.029910 
     16 H          -1.445028   -0.637720    0.586197 H         1 <1>         0.064023 
     17 H           2.444617    0.796281   -0.179113 H         1 <1>         0.031315 
     18 H           1.920642    0.460019   -1.846069 H         1 <1>         0.031315 
     19 H           2.312025   -1.681656   -0.435896 H         1 <1>         0.057252 
     20 H          -0.604560   -3.253934    0.833904 H         1 <1>         0.027516 
     21 H          -0.337247   -3.642696   -0.896514 H         1 <1>         0.027516 
     22 H           1.035982   -3.579889    0.232926 H         1 <1>         0.027516 
     23 H          -0.926329    3.089945    2.184053 H         1 <1>         0.027436 
     24 H          -0.202404    3.751528    0.701312 H         1 <1>         0.027436 
     25 H          -1.714346    2.802564    0.618590 H         1 <1>         0.027436 
     26 H           0.307205    1.212943    2.966078 H         1 <1>         0.053440 
     27 H           1.103809    0.000868    1.837981 H         1 <1>         0.053440 
@<TRIPOS>BOND
     1    4    1 1    
     2    1   12 1    
     3    3    2 1    
     4    2    5 1    
     5    2    8 1    
     6    2   13 1    
     7    3    4 1    
     8    3   14 1    
     9    3   15 1    
    10    4    6 1    
    11    4   16 1    
    12    5    7 1    
    13    5   17 1    
    14    5   18 1    
    15    6    7 2    
    16    6    9 1    
    17    7   19 1    
    18    8   10 1    
    19    8   11 2    
    20    9   20 1    
    21    9   21 1    
    22    9   22 1    
    23   10   23 1    
    24   10   24 1    
    25   10   25 1    
    26   11   26 1    
    27   11   27 1    
@<TRIPOS>SUBSTRUCTURE
     1 ****        2 TEMP              0 ****  ****    0 ROOT 
@<TRIPOS>NORMAL
@<TRIPOS>FF_PBC
FORCE_FIELD_SETUP_FEATURE Force Field Setup information
v1.0  0 0.000000 0.000000 0.000000 0.000000 0.000000 0.000000 NONE 0 0 0 0 1 0 0 0 0 0 0 0 0
