@<TRIPOS>MOLECULE
MOL004979
   34    35     1     1     0
SMALL
GASTEIGER


@<TRIPOS>ATOM
      1 O          -0.842841    2.594516   -0.617100 O.3       1 <1>        -0.383597 
      2 O           1.758635    2.727925   -0.243704 O.2       1 <1>        -0.289189 
      3 O           4.053682    2.004928    0.671294 O.3       1 <1>        -0.359050 
      4 O          -6.138876   -1.201069   -0.424832 O.3       1 <1>        -0.359832 
      5 O           5.221951   -2.742918    0.144504 O.3       1 <1>        -0.359749 
      6 C          -0.134113    1.344796   -0.495467 C.3       1 <1>         0.121583 
      7 C          -0.719968    0.600876    0.734396 C.3       1 <1>         0.005727 
      8 C          -2.150427    0.134649    0.435067 C.ar      1 <1>        -0.044338 
      9 C           1.350126    1.579518   -0.313994 C.2       1 <1>         0.194124 
     10 C           2.362275    0.455751   -0.210986 C.ar      1 <1>         0.049859 
     11 C          -3.221347    1.013028    0.575582 C.ar      1 <1>        -0.056049 
     12 C          -2.404623   -1.258815   -0.008472 C.ar      1 <1>        -0.056049 
     13 C           3.660798    0.719650    0.283013 C.ar      1 <1>         0.085560 
     14 C           2.018957   -0.930773   -0.622398 C.ar      1 <1>        -0.046265 
     15 C          -4.605172    0.569354    0.282722 C.ar      1 <1>        -0.031681 
     16 C          -3.707453   -1.683211   -0.289658 C.ar      1 <1>        -0.031681 
     17 C          -4.847013   -0.749510   -0.140685 C.ar      1 <1>         0.072598 
     18 C           4.644867   -0.381361    0.409902 C.ar      1 <1>        -0.001479 
     19 C           2.956007   -1.961958   -0.502375 C.ar      1 <1>        -0.031115 
     20 C           4.309737   -1.690518    0.031104 C.ar      1 <1>         0.075057 
     21 H          -0.292221    0.762297   -1.418029 H         1 <1>         0.067962 
     22 H          -0.113287   -0.275361    1.008384 H         1 <1>         0.034254 
     23 H          -0.723251    1.279070    1.603053 H         1 <1>         0.034254 
     24 H          -3.047912    2.033340    0.900568 H         1 <1>         0.062109 
     25 H          -1.579510   -1.954696   -0.116641 H         1 <1>         0.062109 
     26 H           1.040017   -1.167006   -1.024099 H         1 <1>         0.062611 
     27 H          -0.487426    3.153284   -1.301867 H         1 <1>         0.210380 
     28 H          -5.421889    1.273737    0.397163 H         1 <1>         0.064328 
     29 H          -3.892698   -2.700211   -0.619649 H         1 <1>         0.064328 
     30 H           5.630992   -0.157037    0.802369 H         1 <1>         0.066921 
     31 H           2.697579   -2.971808   -0.802017 H         1 <1>         0.064341 
     32 H           3.443718    2.696840    0.429691 H         1 <1>         0.217341 
     33 H          -6.824365   -0.584594   -0.193740 H         1 <1>         0.217313 
     34 H           6.006649   -2.531812    0.638401 H         1 <1>         0.217315 
@<TRIPOS>BOND
     1    6    1 1    
     2    1   27 1    
     3    9    2 2    
     4   13    3 1    
     5    3   32 1    
     6   17    4 1    
     7    4   33 1    
     8   20    5 1    
     9    5   34 1    
    10    6    7 1    
    11    9    6 1    
    12    6   21 1    
    13    7    8 1    
    14    7   22 1    
    15    7   23 1    
    16    8   11 2    
    17    8   12 1    
    18   10    9 1    
    19   13   10 2    
    20   10   14 1    
    21   11   15 1    
    22   11   24 1    
    23   12   16 2    
    24   12   25 1    
    25   18   13 1    
    26   14   19 2    
    27   14   26 1    
    28   15   17 2    
    29   15   28 1    
    30   16   17 1    
    31   16   29 1    
    32   18   20 2    
    33   18   30 1    
    34   19   20 1    
    35   19   31 1    
@<TRIPOS>SUBSTRUCTURE
     1 ****        1 TEMP              0 ****  ****    0 ROOT 
@<TRIPOS>NORMAL
@<TRIPOS>FF_PBC
FORCE_FIELD_SETUP_FEATURE Force Field Setup information
v1.0  0 0.000000 0.000000 0.000000 0.000000 0.000000 0.000000 NONE 0 0 0 0 1 0 0 0 0 0 0 0 0
