@<TRIPOS>MOLECULE
MOL005357
   71    74     1     1     0
SMALL
GASTEIGER


@<TRIPOS>ATOM
      1 C           2.874201    0.002628    0.629286 C.2       1 <1>         0.097370 
      2 C           1.389439    0.316553    0.700497 C.3       1 <1>         0.060838 
      3 C           0.424735   -0.876772    0.492806 C.ar      1 <1>         0.004743 
      4 C           3.499041    0.081728   -0.555219 C.2       1 <1>         0.135631 
      5 C           1.047761    1.341290   -0.361783 C.2       1 <1>        -0.034569 
      6 C          -1.012327   -0.729619    0.452561 C.ar      1 <1>        -0.006342 
      7 C          -1.845785    0.563931    0.662487 C.3       1 <1>         0.122602 
      8 C           0.982063   -2.249140    0.298542 C.ar      1 <1>         0.112665 
      9 C           2.850131    0.578766   -1.722289 C.2       1 <1>         0.111555 
     10 C          -1.361400    1.556183    1.778618 C.3       1 <1>         0.099933 
     11 C           1.665075    1.186231   -1.700871 C.2       1 <1>        -0.025100 
     12 C           0.169804   -3.310382    0.013069 C.ar      1 <1>         0.135956 
     13 O          -1.937851    1.093090   -0.681428 O.3       1 <1>        -0.300715 
     14 C           0.239699    2.386829   -0.138693 C.2       1 <1>        -0.074149 
     15 C          -2.996469    1.867745   -0.960054 C.2       1 <1>         0.289857 
     16 C          -1.830185   -1.937541    0.146355 C.ar      1 <1>        -0.022947 
     17 C          -1.295821   -3.131167   -0.061773 C.ar      1 <1>         0.108561 
     18 C          -0.509612    2.713631    1.140576 C.3       1 <1>         0.006231 
     19 O           4.745743   -0.267087   -0.810903 O.3       1 <1>        -0.312766 
     20 C          -3.059112    2.561603   -2.270173 C.2       1 <1>         0.016847 
     21 O           3.587983    0.431144   -2.804135 O.3       1 <1>        -0.314965 
     22 C           4.783959   -0.225529   -2.273516 C.3       1 <1>         0.160130 
     23 O          -3.908443    1.989215   -0.159995 O.2       1 <1>        -0.259577 
     24 O           3.453921   -0.339607    1.804264 O.3       1 <1>        -0.348584 
     25 C          -4.043009    3.408554   -2.620028 C.2       1 <1>        -0.078524 
     26 O           2.354876   -2.475353    0.402661 O.3       1 <1>        -0.344940 
     27 O          -0.686506    0.748167    2.763623 O.3       1 <1>        -0.385348 
     28 O           0.723035   -4.575330   -0.211954 O.3       1 <1>        -0.342944 
     29 O          -2.129531   -4.213644   -0.354004 O.3       1 <1>        -0.345244 
     30 C          -2.564749    2.161932    2.580854 C.3       1 <1>        -0.032731 
     31 C           0.403553    3.511474    2.115622 C.3       1 <1>        -0.056222 
     32 C          -1.955323    2.296497   -3.273384 C.3       1 <1>        -0.034348 
     33 C          -5.220140    3.781736   -1.750405 C.3       1 <1>        -0.046099 
     34 C           4.887677   -0.475188    1.834158 C.3       1 <1>         0.042764 
     35 C           2.729471   -3.171798    1.605271 C.3       1 <1>         0.043149 
     36 C           0.834038   -4.906351   -1.604774 C.3       1 <1>         0.043243 
     37 C          -2.237564   -5.183502    0.700842 C.3       1 <1>         0.043137 
     38 H           1.299794    0.729507    1.702809 H         1 <1>         0.046751 
     39 H          -2.825559    0.196479    1.003321 H         1 <1>         0.068174 
     40 H           1.216254    1.566465   -2.617475 H         1 <1>         0.064706 
     41 H           0.108679    3.081228   -0.971742 H         1 <1>         0.057864 
     42 H          -2.910340   -1.867660    0.072960 H         1 <1>         0.064779 
     43 H          -1.264471    3.444201    0.800086 H         1 <1>         0.036911 
     44 H           5.703882    0.261685   -2.632139 H         1 <1>         0.087951 
     45 H           4.773888   -1.267387   -2.633869 H         1 <1>         0.087951 
     46 H          -4.005831    3.873795   -3.607541 H         1 <1>         0.057367 
     47 H          -0.357452    1.230516    3.515066 H         1 <1>         0.210298 
     48 H          -2.211039    2.788394    3.412217 H         1 <1>         0.025835 
     49 H          -3.219477    2.790563    1.963947 H         1 <1>         0.025835 
     50 H          -3.176783    1.360212    3.022990 H         1 <1>         0.025835 
     51 H           0.842810    4.371691    1.586192 H         1 <1>         0.023626 
     52 H          -0.160501    3.901965    2.974476 H         1 <1>         0.023626 
     53 H           1.232271    2.902188    2.499321 H         1 <1>         0.023626 
     54 H          -1.396458    1.376864   -3.045242 H         1 <1>         0.027926 
     55 H          -1.253420    3.143589   -3.266648 H         1 <1>         0.027926 
     56 H          -2.365690    2.186040   -4.289090 H         1 <1>         0.027926 
     57 H          -5.858444    4.519849   -2.261010 H         1 <1>         0.027190 
     58 H          -4.873807    4.227194   -0.805354 H         1 <1>         0.027190 
     59 H          -5.831833    2.891831   -1.537028 H         1 <1>         0.027190 
     60 H           5.162829   -0.666324    2.881491 H         1 <1>         0.052858 
     61 H           5.387538    0.454132    1.517576 H         1 <1>         0.052858 
     62 H           5.249243   -1.326644    1.239230 H         1 <1>         0.052858 
     63 H           3.819952   -3.303664    1.604246 H         1 <1>         0.052871 
     64 H           2.443700   -2.589549    2.495100 H         1 <1>         0.052871 
     65 H           2.268533   -4.168322    1.671516 H         1 <1>         0.052871 
     66 H           1.269737   -5.912861   -1.689639 H         1 <1>         0.052872 
     67 H          -0.154130   -4.907817   -2.090964 H         1 <1>         0.052872 
     68 H           1.494434   -4.190176   -2.118976 H         1 <1>         0.052872 
     69 H          -2.932858   -5.969382    0.370858 H         1 <1>         0.052871 
     70 H          -1.266728   -5.648827    0.929015 H         1 <1>         0.052871 
     71 H          -2.639813   -4.716831    1.613511 H         1 <1>         0.052871 
@<TRIPOS>BOND
     1    1    2 1    
     2    1    4 2    
     3    1   24 1    
     4    2    3 1    
     5    2    5 1    
     6    2   38 1    
     7    3    6 2    
     8    3    8 1    
     9    4    9 1    
    10    4   19 1    
    11    5   11 1    
    12    5   14 2    
    13    6    7 1    
    14    6   16 1    
    15    7   10 1    
    16    7   13 1    
    17    7   39 1    
    18    8   12 2    
    19    8   26 1    
    20    9   11 2    
    21    9   21 1    
    22   10   18 1    
    23   10   27 1    
    24   10   30 1    
    25   11   40 1    
    26   12   17 1    
    27   12   28 1    
    28   13   15 1    
    29   14   18 1    
    30   14   41 1    
    31   15   20 1    
    32   15   23 2    
    33   16   17 2    
    34   16   42 1    
    35   17   29 1    
    36   18   31 1    
    37   18   43 1    
    38   19   22 1    
    39   20   25 2    
    40   20   32 1    
    41   21   22 1    
    42   22   44 1    
    43   22   45 1    
    44   24   34 1    
    45   25   33 1    
    46   25   46 1    
    47   26   35 1    
    48   27   47 1    
    49   28   36 1    
    50   29   37 1    
    51   30   48 1    
    52   30   49 1    
    53   30   50 1    
    54   31   51 1    
    55   31   52 1    
    56   31   53 1    
    57   32   54 1    
    58   32   55 1    
    59   32   56 1    
    60   33   57 1    
    61   33   58 1    
    62   33   59 1    
    63   34   60 1    
    64   34   61 1    
    65   34   62 1    
    66   35   63 1    
    67   35   64 1    
    68   35   65 1    
    69   36   66 1    
    70   36   67 1    
    71   36   68 1    
    72   37   69 1    
    73   37   70 1    
    74   37   71 1    
@<TRIPOS>SUBSTRUCTURE
     1 ****        1 TEMP              0 ****  ****    0 ROOT 
@<TRIPOS>NORMAL
@<TRIPOS>FF_PBC
FORCE_FIELD_SETUP_FEATURE Force Field Setup information
v1.0  0 0.000000 0.000000 0.000000 0.000000 0.000000 0.000000 NONE 0 0 0 0 1 0 0 0 0 0 0 0 0
