@<TRIPOS>MOLECULE
MOL002266
   62    67     1     1     0
SMALL
GASTEIGER


@<TRIPOS>ATOM
      1 C          -1.336743    2.644875   -0.687500 C.ar      1 <1>         0.055942 
      2 C          -1.520171    1.393306    0.090356 C.ar      1 <1>        -0.023335 
      3 C          -0.308679    0.524081    0.467426 C.3       1 <1>         0.021656 
      4 C           0.996633    1.327605    0.609497 C.ar      1 <1>        -0.025520 
      5 C           1.211496    2.564994   -0.178403 C.ar      1 <1>         0.055797 
      6 C           0.067869    3.104509   -1.003431 C.2       1 <1>         0.198628 
      7 C           1.990055    0.876343    1.434685 C.ar      1 <1>        -0.054207 
      8 C           3.304252    1.562103    1.488201 C.ar      1 <1>        -0.047703 
      9 C           3.514910    2.660394    0.727691 C.ar      1 <1>        -0.028304 
     10 C           2.444311    3.202642   -0.140634 C.ar      1 <1>         0.083914 
     11 C          -2.431426    3.376891   -1.090380 C.ar      1 <1>         0.086109 
     12 C          -3.793386    2.923304   -0.709726 C.ar      1 <1>        -0.001204 
     13 C          -3.955042    1.811285    0.030158 C.ar      1 <1>         0.078566 
     14 C          -2.779074    1.018533    0.454832 C.ar      1 <1>        -0.027063 
     15 C           1.374719   -0.713738   -0.971477 C.ar      1 <1>        -0.025769 
     16 C           2.267494   -1.654861   -0.253804 C.ar      1 <1>         0.055780 
     17 C           1.651307   -2.621854    0.727869 C.2       1 <1>         0.198627 
     18 C           0.165168   -2.883154    0.672851 C.ar      1 <1>         0.055821 
     19 C          -0.703574   -1.924475   -0.054150 C.ar      1 <1>        -0.025032 
     20 C          -0.115656   -0.610460   -0.598268 C.3       1 <1>         0.021589 
     21 C          -0.387111   -4.007022    1.267949 C.ar      1 <1>         0.084406 
     22 C          -1.835920   -4.270886    1.114045 C.ar      1 <1>        -0.018357 
     23 C          -2.622218   -3.432999    0.392531 C.ar      1 <1>         0.049022 
     24 C          -2.028818   -2.215025   -0.214164 C.ar      1 <1>        -0.044250 
     25 C           1.900711    0.099076   -1.937397 C.ar      1 <1>        -0.057128 
     26 C           3.355021    0.090391   -2.219264 C.ar      1 <1>        -0.059013 
     27 C           4.176269   -0.716708   -1.521675 C.ar      1 <1>        -0.031220 
     28 C           3.635111   -1.637825   -0.495838 C.ar      1 <1>         0.083665 
     29 O           2.706027    4.354626   -0.890386 O.3       1 <1>        -0.359105 
     30 O           0.303698    3.914422   -1.886085 O.2       1 <1>        -0.286459 
     31 O          -2.252866    4.544522   -1.835736 O.3       1 <1>        -0.359031 
     32 C           4.424411    1.021526    2.384600 C.3       1 <1>        -0.039620 
     33 O           0.388500   -4.916777    1.994564 O.3       1 <1>        -0.359093 
     34 O           2.353683   -3.214208    1.532879 O.2       1 <1>        -0.286459 
     35 O           4.519026   -2.477560    0.189777 O.3       1 <1>        -0.359114 
     36 C          -4.097144   -3.723028    0.208749 C.2       1 <1>         0.291326 
     37 O          -4.846603   -2.898227   -0.526737 O.3       1 <1>        -0.327489 
     38 O          -4.593954   -4.708978    0.731108 O.2       1 <1>        -0.259428 
     39 O          -5.233381    1.395649    0.396017 O.3       1 <1>        -0.347820 
     40 C          -5.884457    0.582533   -0.593295 C.3       1 <1>         0.043027 
     41 H          -0.511233    0.089462    1.460665 H         1 <1>         0.040673 
     42 H           1.833096   -0.008863    2.041551 H         1 <1>         0.062331 
     43 H           4.476101    3.162675    0.746583 H         1 <1>         0.064604 
     44 H          -4.666686    3.486877   -1.018432 H         1 <1>         0.066929 
     45 H          -2.944943    0.129753    1.052960 H         1 <1>         0.064641 
     46 H          -0.652219   -0.359736   -1.528097 H         1 <1>         0.040672 
     47 H          -2.252658   -5.155383    1.583498 H         1 <1>         0.065115 
     48 H          -2.667647   -1.544126   -0.778260 H         1 <1>         0.062839 
     49 H           1.264410    0.780928   -2.492320 H         1 <1>         0.062069 
     50 H           3.755977    0.748139   -2.984604 H         1 <1>         0.061846 
     51 H           5.245042   -0.706246   -1.709495 H         1 <1>         0.064340 
     52 H           2.022079    4.584818   -1.512541 H         1 <1>         0.217340 
     53 H          -3.062290    4.980959   -2.075694 H         1 <1>         0.217341 
     54 H           4.761323    1.810515    3.073787 H         1 <1>         0.027754 
     55 H           4.086409    0.157690    2.975844 H         1 <1>         0.027754 
     56 H           5.269811    0.705632    1.754637 H         1 <1>         0.027754 
     57 H           1.284883   -4.637532    2.158455 H         1 <1>         0.217340 
     58 H           4.130110   -2.951905    0.919239 H         1 <1>         0.217340 
     59 H          -5.753690   -3.181967   -0.575105 H         1 <1>         0.220555 
     60 H          -6.869809    0.287446   -0.204429 H         1 <1>         0.052870 
     61 H          -5.297576   -0.325681   -0.797292 H         1 <1>         0.052870 
     62 H          -6.026938    1.140619   -1.531792 H         1 <1>         0.052870 
@<TRIPOS>BOND
     1    2    1 1    
     2    1    6 1    
     3    1   11 2    
     4    3    2 1    
     5    2   14 2    
     6    3    4 1    
     7   20    3 1    
     8    3   41 1    
     9    4    5 1    
    10    4    7 2    
    11    5    6 1    
    12    5   10 2    
    13    6   30 2    
    14    7    8 1    
    15    7   42 1    
    16    8    9 2    
    17    8   32 1    
    18   10    9 1    
    19    9   43 1    
    20   10   29 1    
    21   11   12 1    
    22   11   31 1    
    23   13   12 2    
    24   12   44 1    
    25   14   13 1    
    26   13   39 1    
    27   14   45 1    
    28   15   16 1    
    29   15   20 1    
    30   15   25 2    
    31   16   17 1    
    32   16   28 2    
    33   17   18 1    
    34   17   34 2    
    35   18   19 1    
    36   18   21 2    
    37   19   20 1    
    38   19   24 2    
    39   20   46 1    
    40   21   22 1    
    41   21   33 1    
    42   22   23 2    
    43   22   47 1    
    44   23   24 1    
    45   23   36 1    
    46   24   48 1    
    47   25   26 1    
    48   25   49 1    
    49   26   27 2    
    50   26   50 1    
    51   27   28 1    
    52   27   51 1    
    53   28   35 1    
    54   29   52 1    
    55   31   53 1    
    56   32   54 1    
    57   32   55 1    
    58   32   56 1    
    59   33   57 1    
    60   35   58 1    
    61   36   37 1    
    62   36   38 2    
    63   37   59 1    
    64   39   40 1    
    65   40   60 1    
    66   40   61 1    
    67   40   62 1    
@<TRIPOS>SUBSTRUCTURE
     1 ****       15 TEMP              0 ****  ****    0 ROOT 
@<TRIPOS>NORMAL
@<TRIPOS>FF_PBC
FORCE_FIELD_SETUP_FEATURE Force Field Setup information
v1.0  0 0.000000 0.000000 0.000000 0.000000 0.000000 0.000000 NONE 0 0 0 0 1 0 0 0 0 0 0 0 0
