@<TRIPOS>MOLECULE
MOL004850
   79    84     1     1     0
SMALL
GASTEIGER


@<TRIPOS>ATOM
      1 C          -4.209629    2.569877    0.650093 C.3       1 <1>        -0.005578 
      2 C          -5.228820    2.000324   -0.388562 C.3       1 <1>         0.060638 
      3 C          -5.134928    0.457775   -0.531040 C.3       1 <1>        -0.025820 
      4 C          -3.692937   -0.002167   -0.889831 C.3       1 <1>        -0.044330 
      5 C          -2.582209    0.446611    0.117394 C.3       1 <1>        -0.018250 
      6 C          -2.772846    2.001866    0.294352 C.3       1 <1>        -0.027446 
      7 C          -1.602049    2.648396    1.075695 C.3       1 <1>        -0.048587 
      8 C          -0.185858    2.139364    0.657091 C.3       1 <1>        -0.045875 
      9 C          -0.033357    1.162260   -0.564732 C.3       1 <1>        -0.012574 
     10 C          -1.111393    0.044705   -0.377583 C.3       1 <1>         0.033333 
     11 C           1.477796    0.579601   -0.622701 C.3       1 <1>        -0.001995 
     12 C          -0.924336   -0.823420   -1.607200 C.2       1 <1>         0.160199 
     13 C           0.378939   -1.468691   -1.722855 C.2       1 <1>        -0.018837 
     14 C           1.443680   -0.886803   -1.156331 C.2       1 <1>        -0.056017 
     15 C           2.284532    0.420245    0.733203 C.3       1 <1>        -0.016403 
     16 C           3.714223   -0.253301    0.585537 C.3       1 <1>         0.065864 
     17 C           3.985417   -1.065948   -0.718359 C.3       1 <1>         0.003103 
     18 C           2.630095   -1.795689   -0.885377 C.3       1 <1>        -0.010091 
     19 C          -4.228257    4.131418    0.484920 C.3       1 <1>        -0.057190 
     20 C          -4.733926    2.316597    2.104033 C.3       1 <1>        -0.057190 
     21 O          -6.567442    2.379619   -0.009055 O.3       1 <1>        -0.391248 
     22 C          -2.795248   -0.343301    1.454521 C.3       1 <1>        -0.058618 
     23 C          -0.363533    1.816656   -1.963802 C.3       1 <1>        -0.058098 
     24 C           2.346750    1.674388   -1.361952 C.3       1 <1>        -0.055220 
     25 C           2.809824   -3.337267   -0.758942 C.3       1 <1>        -0.029022 
     26 C           3.525727   -3.647592    0.622767 C.3       1 <1>         0.079705 
     27 C           4.520866   -2.496397    1.025016 C.3       1 <1>         0.074025 
     28 C           5.166334   -1.951881   -0.243653 C.3       1 <1>        -0.017266 
     29 C           4.214603   -5.042058    0.535243 C.3       1 <1>        -0.048057 
     30 C           2.568440   -3.703873    1.799104 C.2       1 <1>         0.268057 
     31 O           3.146293   -3.815147    3.000315 O.3       1 <1>        -0.330792 
     32 O           1.355069   -3.640872    1.670820 O.2       1 <1>        -0.264472 
     33 O           3.885775   -1.305342    1.580815 O.3       1 <1>        -0.371700 
     34 O          -1.760711   -1.040750   -2.472032 O.2       1 <1>        -0.292347 
     35 H          -5.001764    2.442989   -1.375329 H         1 <1>         0.059852 
     36 H          -5.513262   -0.034953    0.373179 H         1 <1>         0.029038 
     37 H          -5.808216    0.149668   -1.349328 H         1 <1>         0.029038 
     38 H          -3.700444   -1.100805   -0.985322 H         1 <1>         0.027160 
     39 H          -3.486074    0.436879   -1.878302 H         1 <1>         0.027160 
     40 H          -2.657012    2.430471   -0.700325 H         1 <1>         0.031221 
     41 H          -1.617189    3.741053    0.934850 H         1 <1>         0.026846 
     42 H          -1.762385    2.479757    2.151112 H         1 <1>         0.026846 
     43 H           0.169064    1.606999    1.549060 H         1 <1>         0.027107 
     44 H           0.470942    3.012133    0.531694 H         1 <1>         0.027107 
     45 H          -0.638441   -0.546041    0.423805 H         1 <1>         0.039170 
     46 H           0.425985   -2.449730   -2.192892 H         1 <1>         0.065218 
     47 H           2.456677    1.402442    1.202418 H         1 <1>         0.029882 
     48 H           1.686683   -0.160600    1.458337 H         1 <1>         0.029882 
     49 H           4.526784    0.468857    0.761292 H         1 <1>         0.060181 
     50 C           4.466717   -0.452225   -2.069343 C.3       1 <1>        -0.056570 
     51 H           2.098221   -1.880082    0.069481 H         1 <1>         0.035229 
     52 H          -3.709590    4.629156    1.317904 H         1 <1>         0.023587 
     53 H          -5.260726    4.514142    0.483385 H         1 <1>         0.023587 
     54 H          -3.765613    4.461888   -0.457569 H         1 <1>         0.023587 
     55 H          -3.952840    2.484727    2.856204 H         1 <1>         0.023587 
     56 H          -5.164841    1.325735    2.261760 H         1 <1>         0.023587 
     57 H          -5.557771    3.008480    2.338069 H         1 <1>         0.023587 
     58 H          -7.235157    2.105783   -0.629213 H         1 <1>         0.209800 
     59 H          -3.804985   -0.319342    1.855230 H         1 <1>         0.023535 
     60 H          -2.584267   -1.413455    1.296183 H         1 <1>         0.023535 
     61 H          -2.119291    0.028127    2.239059 H         1 <1>         0.023535 
     62 H           0.110916    1.253795   -2.781136 H         1 <1>         0.023553 
     63 H          -1.410075    1.791748   -2.277300 H         1 <1>         0.023553 
     64 H          -0.037533    2.865466   -2.016495 H         1 <1>         0.023553 
     65 H           2.069919    2.682386   -1.034066 H         1 <1>         0.023830 
     66 H           3.414526    1.650497   -1.132071 H         1 <1>         0.023830 
     67 H           2.255684    1.662697   -2.453993 H         1 <1>         0.023830 
     68 H           1.870805   -3.913461   -0.839020 H         1 <1>         0.028205 
     69 H           3.424841   -3.647205   -1.618457 H         1 <1>         0.028205 
     70 H           5.270700   -2.871867    1.740106 H         1 <1>         0.060657 
     71 H           6.052455   -1.336740   -0.004225 H         1 <1>         0.029668 
     72 H           5.487793   -2.742551   -0.938841 H         1 <1>         0.029668 
     73 H           4.706585   -5.303000    1.485285 H         1 <1>         0.024069 
     74 H           3.459371   -5.814975    0.318222 H         1 <1>         0.024069 
     75 H           4.973201   -5.067397   -0.261089 H         1 <1>         0.024069 
     76 H           2.510204   -3.779838    3.705174 H         1 <1>         0.220227 
     77 H           5.195932    0.355500   -1.900125 H         1 <1>         0.023606 
     78 H           4.964926   -1.216049   -2.687273 H         1 <1>         0.023606 
     79 H           3.641596   -0.102662   -2.697833 H         1 <1>         0.023606 
@<TRIPOS>BOND
     1    1    2 1    
     2    1    6 1    
     3    1   19 1    
     4    1   20 1    
     5    2    3 1    
     6    2   21 1    
     7    2   35 1    
     8    3    4 1    
     9    3   36 1    
    10    3   37 1    
    11    4    5 1    
    12    4   38 1    
    13    4   39 1    
    14    5    6 1    
    15    5   10 1    
    16    5   22 1    
    17    6    7 1    
    18    6   40 1    
    19    7    8 1    
    20    7   41 1    
    21    7   42 1    
    22    8    9 1    
    23    8   43 1    
    24    8   44 1    
    25    9   10 1    
    26    9   11 1    
    27    9   23 1    
    28   10   12 1    
    29   10   45 1    
    30   11   14 1    
    31   11   15 1    
    32   11   24 1    
    33   12   13 1    
    34   12   34 2    
    35   13   14 2    
    36   13   46 1    
    37   14   18 1    
    38   15   16 1    
    39   15   47 1    
    40   15   48 1    
    41   16   17 1    
    42   16   33 1    
    43   16   49 1    
    44   17   18 1    
    45   17   28 1    
    46   17   50 1    
    47   18   25 1    
    48   18   51 1    
    49   19   52 1    
    50   19   53 1    
    51   19   54 1    
    52   20   55 1    
    53   20   56 1    
    54   20   57 1    
    55   21   58 1    
    56   22   59 1    
    57   22   60 1    
    58   22   61 1    
    59   23   62 1    
    60   23   63 1    
    61   23   64 1    
    62   24   65 1    
    63   24   66 1    
    64   24   67 1    
    65   25   26 1    
    66   25   68 1    
    67   25   69 1    
    68   26   27 1    
    69   26   29 1    
    70   26   30 1    
    71   27   28 1    
    72   27   33 1    
    73   27   70 1    
    74   28   71 1    
    75   28   72 1    
    76   29   73 1    
    77   29   74 1    
    78   29   75 1    
    79   30   31 1    
    80   30   32 2    
    81   31   76 1    
    82   50   77 1    
    83   50   78 1    
    84   50   79 1    
@<TRIPOS>SUBSTRUCTURE
     1 ****        1 TEMP              0 ****  ****    0 ROOT 
@<TRIPOS>NORMAL
@<TRIPOS>FF_PBC
FORCE_FIELD_SETUP_FEATURE Force Field Setup information
v1.0  0 0.000000 0.000000 0.000000 0.000000 0.000000 0.000000 NONE 0 0 0 0 1 0 0 0 0 0 0 0 0
