@<TRIPOS>MOLECULE
MOL005002
   80    84     1     1     0
SMALL
GASTEIGER


@<TRIPOS>ATOM
      1 O           5.885126   -2.344073    0.678417 O.3       1 <1>        -0.391248 
      2 O           0.662572   -2.679326    0.905295 O.2       1 <1>        -0.292347 
      3 O          -5.892489   -3.386907   -0.254985 O.3       1 <1>        -0.330857 
      4 O          -7.288328   -2.061167    0.876755 O.2       1 <1>        -0.264567 
      5 C           0.742621    0.844356    0.316733 C.3       1 <1>        -0.012656 
      6 C           2.842426   -0.952146    0.309565 C.3       1 <1>        -0.018250 
      7 C           1.327936   -0.579260   -0.000324 C.3       1 <1>         0.033332 
      8 C          -0.693964    1.039919   -0.388223 C.3       1 <1>        -0.004332 
      9 C           3.734128    0.203611   -0.267445 C.3       1 <1>        -0.027446 
     10 C           1.795852    1.894650   -0.171246 C.3       1 <1>        -0.045876 
     11 C          -1.625638   -0.138453   -0.061696 C.2       1 <1>        -0.056185 
     12 C           3.256684    1.593195    0.270858 C.3       1 <1>        -0.048587 
     13 C           5.298880   -0.032567   -0.260362 C.3       1 <1>        -0.005578 
     14 C          -3.133853    0.041669   -0.283310 C.3       1 <1>        -0.012608 
     15 C          -3.697785    1.344306    0.354602 C.3       1 <1>        -0.025442 
     16 C          -1.351632    2.398453    0.056435 C.3       1 <1>        -0.042869 
     17 C           3.176342   -2.294640   -0.459011 C.3       1 <1>        -0.044330 
     18 C          -2.873912    2.537610   -0.223498 C.3       1 <1>        -0.046277 
     19 C           0.319877   -1.595083    0.463044 C.2       1 <1>         0.160199 
     20 C           0.586297    0.991882    1.870586 C.3       1 <1>        -0.058099 
     21 C           5.637107   -1.552224   -0.498694 C.3       1 <1>         0.060638 
     22 C           3.145387   -1.201779    1.833345 C.3       1 <1>        -0.058618 
     23 C           4.500613   -2.259344   -1.276125 C.3       1 <1>        -0.025820 
     24 C          -0.640445    1.074222   -1.962636 C.3       1 <1>        -0.055302 
     25 C          -4.049083   -1.183651    0.026867 C.3       1 <1>        -0.031522 
     26 C          -1.117718   -1.305836    0.365058 C.2       1 <1>        -0.018839 
     27 C          -5.190156    1.547350   -0.067481 C.3       1 <1>        -0.046118 
     28 C          -5.540677   -0.997103   -0.394245 C.3       1 <1>         0.053721 
     29 C          -6.099481    0.320397    0.220937 C.3       1 <1>        -0.038057 
     30 C           5.995816    0.490256    1.035368 C.3       1 <1>        -0.057190 
     31 C           5.946640    0.779335   -1.439011 C.3       1 <1>        -0.057190 
     32 C          -3.589453    1.305699    1.912950 C.3       1 <1>        -0.059016 
     33 C          -5.734406   -1.021260   -1.943250 C.3       1 <1>        -0.050480 
     34 C          -6.324430   -2.185270    0.137256 C.2       1 <1>         0.265560 
     35 H           1.288834   -0.639797   -1.091128 H         1 <1>         0.039170 
     36 H           3.475644    0.232705   -1.337195 H         1 <1>         0.031221 
     37 H           1.515688    2.905235    0.166805 H         1 <1>         0.027107 
     38 H           1.850837    1.926628   -1.265569 H         1 <1>         0.027107 
     39 H           3.879950    2.399360   -0.144948 H         1 <1>         0.026846 
     40 H           3.336554    1.681470    1.361225 H         1 <1>         0.026846 
     41 H          -3.242152    0.142203   -1.368361 H         1 <1>         0.035146 
     42 H          -0.831635    3.238753   -0.430645 H         1 <1>         0.027392 
     43 H          -1.280723    2.582740    1.130480 H         1 <1>         0.027392 
     44 H           2.400670   -2.590555   -1.184205 H         1 <1>         0.027160 
     45 H           3.226359   -3.142587    0.243540 H         1 <1>         0.027160 
     46 H          -3.241367    3.479012    0.220814 H         1 <1>         0.027096 
     47 H          -3.037727    2.635501   -1.306701 H         1 <1>         0.027096 
     48 H          -0.303545    0.465051    2.235628 H         1 <1>         0.023553 
     49 H           1.414057    0.581621    2.435723 H         1 <1>         0.023553 
     50 H           0.543458    2.038323    2.202677 H         1 <1>         0.023553 
     51 H           6.551911   -1.653458   -1.111086 H         1 <1>         0.059852 
     52 H           2.301603   -1.688724    2.338563 H         1 <1>         0.023535 
     53 H           4.002901   -1.864583    1.988899 H         1 <1>         0.023535 
     54 H           3.398308   -0.306793    2.406085 H         1 <1>         0.023535 
     55 H           4.810118   -3.294400   -1.503475 H         1 <1>         0.029038 
     56 H           4.347021   -1.754647   -2.243805 H         1 <1>         0.029038 
     57 H          -0.277866    0.140478   -2.409030 H         1 <1>         0.023829 
     58 H          -1.619753    1.235466   -2.422251 H         1 <1>         0.023829 
     59 H          -0.039590    1.903235   -2.353727 H         1 <1>         0.023829 
     60 H          -3.679931   -2.066002   -0.520963 H         1 <1>         0.028121 
     61 H          -4.004476   -1.409609    1.102920 H         1 <1>         0.028121 
     62 H          -1.727667   -2.155637    0.658822 H         1 <1>         0.065218 
     63 H          -5.251955    1.769433   -1.143312 H         1 <1>         0.027098 
     64 H          -5.600536    2.424584    0.459849 H         1 <1>         0.027098 
     65 H          -6.218492    0.200045    1.307379 H         1 <1>         0.027550 
     66 H          -7.108127    0.513491   -0.181734 H         1 <1>         0.027550 
     67 H           5.642220   -0.012518    1.941813 H         1 <1>         0.023587 
     68 H           7.082432    0.325681    0.973263 H         1 <1>         0.023587 
     69 H           5.840337    1.570557    1.168554 H         1 <1>         0.023587 
     70 H           5.570581    0.442043   -2.416855 H         1 <1>         0.023587 
     71 H           5.755084    1.858219   -1.361915 H         1 <1>         0.023587 
     72 H           7.040863    0.654553   -1.452245 H         1 <1>         0.023587 
     73 H          -4.257971    0.573051    2.377995 H         1 <1>         0.023525 
     74 H          -2.581014    1.037336    2.243050 H         1 <1>         0.023525 
     75 H          -3.838627    2.290695    2.335525 H         1 <1>         0.023525 
     76 H          -5.312329   -1.942966   -2.372872 H         1 <1>         0.023986 
     77 H          -6.808883   -0.999909   -2.184129 H         1 <1>         0.023986 
     78 H          -5.266557   -0.171890   -2.456393 H         1 <1>         0.023986 
     79 H           6.662718   -2.098491    1.169225 H         1 <1>         0.209800 
     80 H          -6.417578   -4.090821    0.109779 H         1 <1>         0.220226 
@<TRIPOS>BOND
     1   21    1 1    
     2    1   79 1    
     3   19    2 2    
     4   34    3 1    
     5    3   80 1    
     6   34    4 2    
     7    5    7 1    
     8    8    5 1    
     9    5   10 1    
    10    5   20 1    
    11    7    6 1    
    12    6    9 1    
    13    6   17 1    
    14    6   22 1    
    15   19    7 1    
    16    7   35 1    
    17   11    8 1    
    18    8   16 1    
    19    8   24 1    
    20   12    9 1    
    21    9   13 1    
    22    9   36 1    
    23   10   12 1    
    24   10   37 1    
    25   10   38 1    
    26   14   11 1    
    27   11   26 2    
    28   12   39 1    
    29   12   40 1    
    30   13   21 1    
    31   13   30 1    
    32   13   31 1    
    33   14   15 1    
    34   25   14 1    
    35   14   41 1    
    36   15   18 1    
    37   27   15 1    
    38   15   32 1    
    39   18   16 1    
    40   16   42 1    
    41   16   43 1    
    42   17   23 1    
    43   17   44 1    
    44   17   45 1    
    45   18   46 1    
    46   18   47 1    
    47   26   19 1    
    48   20   48 1    
    49   20   49 1    
    50   20   50 1    
    51   23   21 1    
    52   21   51 1    
    53   22   52 1    
    54   22   53 1    
    55   22   54 1    
    56   23   55 1    
    57   23   56 1    
    58   24   57 1    
    59   24   58 1    
    60   24   59 1    
    61   28   25 1    
    62   25   60 1    
    63   25   61 1    
    64   26   62 1    
    65   29   27 1    
    66   27   63 1    
    67   27   64 1    
    68   28   29 1    
    69   28   33 1    
    70   28   34 1    
    71   29   65 1    
    72   29   66 1    
    73   30   67 1    
    74   30   68 1    
    75   30   69 1    
    76   31   70 1    
    77   31   71 1    
    78   31   72 1    
    79   32   73 1    
    80   32   74 1    
    81   32   75 1    
    82   33   76 1    
    83   33   77 1    
    84   33   78 1    
@<TRIPOS>SUBSTRUCTURE
     1 ****        5 TEMP              0 ****  ****    0 ROOT 
@<TRIPOS>NORMAL
@<TRIPOS>FF_PBC
FORCE_FIELD_SETUP_FEATURE Force Field Setup information
v1.0  0 0.000000 0.000000 0.000000 0.000000 0.000000 0.000000 NONE 0 0 0 0 1 0 0 0 0 0 0 0 0
