@<TRIPOS>MOLECULE
MOL002478
   24    23     1     1     0
SMALL
GASTEIGER


@<TRIPOS>ATOM
      1 C          -0.965924    0.998251    0.119504 C.3       1 <1>        -0.027115 
      2 C           0.269157    0.054991    0.147863 C.3       1 <1>        -0.050742 
      3 C          -0.606661    2.509231    0.183563 C.3       1 <1>         0.052449 
      4 C          -0.163729   -1.435820    0.214563 C.3       1 <1>        -0.053226 
      5 C           0.200493    2.989338   -1.053061 C.3       1 <1>        -0.038948 
      6 O          -1.854470    3.224182    0.251367 O.3       1 <1>        -0.392058 
      7 C           1.066677   -2.383703    0.227700 C.3       1 <1>        -0.055910 
      8 C           0.632324   -3.871454    0.286515 C.3       1 <1>        -0.065276 
      9 H          -1.558874    0.807359   -0.789461 H         1 <1>         0.028993 
     10 H          -1.602562    0.772468    0.990966 H         1 <1>         0.028993 
     11 H           0.892919    0.293565    1.024835 H         1 <1>         0.026608 
     12 H           0.874333    0.197905   -0.760749 H         1 <1>         0.026608 
     13 H          -0.023220    2.700675    1.102729 H         1 <1>         0.059029 
     14 H          -0.794636   -1.671033   -0.658561 H         1 <1>         0.026521 
     15 H          -0.759898   -1.605073    1.126424 H         1 <1>         0.026521 
     16 H           0.344720    4.079780   -1.009183 H         1 <1>         0.025442 
     17 H           1.195089    2.521990   -1.090841 H         1 <1>         0.025442 
     18 H          -0.346150    2.747141   -1.976991 H         1 <1>         0.025442 
     19 H          -1.748210    4.166317    0.338661 H         1 <1>         0.209764 
     20 H           1.697423   -2.157178    1.103557 H         1 <1>         0.026265 
     21 H           1.668815   -2.221621   -0.681960 H         1 <1>         0.026265 
     22 H           1.518974   -4.525066    0.296982 H         1 <1>         0.022978 
     23 H           0.019138   -4.127669   -0.591582 H         1 <1>         0.022978 
     24 H           0.044170   -4.064777    1.197162 H         1 <1>         0.022978 
@<TRIPOS>BOND
     1    1    2 1    
     2    1    3 1    
     3    1    9 1    
     4    1   10 1    
     5    2    4 1    
     6    2   11 1    
     7    2   12 1    
     8    3    5 1    
     9    3    6 1    
    10    3   13 1    
    11    4    7 1    
    12    4   14 1    
    13    4   15 1    
    14    5   16 1    
    15    5   17 1    
    16    5   18 1    
    17    6   19 1    
    18    7    8 1    
    19    7   20 1    
    20    7   21 1    
    21    8   22 1    
    22    8   23 1    
    23    8   24 1    
@<TRIPOS>SUBSTRUCTURE
     1 ****        1 TEMP              0 ****  ****    0 ROOT 
@<TRIPOS>NORMAL
@<TRIPOS>FF_PBC
FORCE_FIELD_SETUP_FEATURE Force Field Setup information
v1.0  0 0.000000 0.000000 0.000000 0.000000 0.000000 0.000000 NONE 0 0 0 0 1 0 0 0 0 0 0 0 0
