@<TRIPOS>MOLECULE
MOL004992
   31    33     1     1     0
SMALL
GASTEIGER


@<TRIPOS>ATOM
      1 C          -2.444717   -0.272186   -0.036809 C.ar      1 <1>         0.095908 
      2 C          -1.860317    1.067560   -0.002990 C.ar      1 <1>         0.052925 
      3 O          -1.600487   -1.363808   -0.047348 O.3       1 <1>        -0.312327 
      4 C          -3.830348   -0.445932   -0.058074 C.ar      1 <1>        -0.000711 
      5 C          -0.354657    1.097714    0.016959 C.2       1 <1>         0.198352 
      6 C          -2.690410    2.204087    0.008647 C.ar      1 <1>        -0.045981 
      7 C          -0.252520   -1.318164   -0.029065 C.2       1 <1>         0.068731 
      8 C          -4.722118    0.742569   -0.046227 C.ar      1 <1>         0.075081 
      9 C           0.466328   -0.161144    0.002860 C.2       1 <1>         0.055478 
     10 O           0.084276    2.232348    0.044807 O.2       1 <1>        -0.286469 
     11 C          -4.162414    2.025479   -0.013819 C.ar      1 <1>        -0.031105 
     12 C           0.185741   -2.766848   -0.051771 C.3       1 <1>        -0.016791 
     13 O          -6.111111    0.603473   -0.066858 O.3       1 <1>        -0.359749 
     14 H          -4.241255   -1.448617   -0.083054 H         1 <1>         0.066945 
     15 H          -2.265264    3.202036    0.033721 H         1 <1>         0.062621 
     16 C           2.004597   -0.072565    0.024394 C.ar      1 <1>        -0.012033 
     17 H          -4.813657    2.892869   -0.005173 H         1 <1>         0.064341 
     18 H          -0.672610   -3.458738   -0.076174 H         1 <1>         0.029733 
     19 H           0.731614   -3.021051    0.868530 H         1 <1>         0.029733 
     20 H           0.754915   -2.985212   -0.967146 H         1 <1>         0.029733 
     21 H          -6.404159   -0.300402   -0.088385 H         1 <1>         0.217315 
     22 C           2.934596   -1.247222    0.013138 C.ar      1 <1>        -0.053842 
     23 C           2.713911    1.168123    0.058036 C.ar      1 <1>        -0.053842 
     24 C           4.192111    1.291774    0.079493 C.ar      1 <1>        -0.061182 
     25 C           4.997043    0.165550    0.067643 C.ar      1 <1>        -0.061723 
     26 C           4.333138   -1.149181    0.033124 C.ar      1 <1>        -0.061182 
     27 H           2.597616   -2.259846   -0.011268 H         1 <1>         0.062364 
     28 H           2.236216    2.127971    0.070871 H         1 <1>         0.062364 
     29 H           4.651449    2.275766    0.104810 H         1 <1>         0.061776 
     30 H           6.079498    0.245131    0.083165 H         1 <1>         0.061759 
     31 H           4.946051   -2.046257    0.023315 H         1 <1>         0.061776 
@<TRIPOS>BOND
     1    1    2 1    
     2    1    3 1    
     3    1    4 2    
     4    2    5 1    
     5    2    6 2    
     6    3    7 1    
     7    4    8 1    
     8    4   14 1    
     9    5    9 1    
    10    5   10 2    
    11    6   11 1    
    12    6   15 1    
    13    7    9 2    
    14    7   12 1    
    15    8   11 2    
    16    8   13 1    
    17    9   16 1    
    18   11   17 1    
    19   12   18 1    
    20   12   19 1    
    21   12   20 1    
    22   13   21 1    
    23   16   22 1    
    24   16   23 2    
    25   22   26 2    
    26   22   27 1    
    27   23   24 1    
    28   23   28 1    
    29   24   25 2    
    30   24   29 1    
    31   25   26 1    
    32   25   30 1    
    33   26   31 1    
@<TRIPOS>SUBSTRUCTURE
     1 ****        1 TEMP              0 ****  ****    0 ROOT 
@<TRIPOS>NORMAL
@<TRIPOS>FF_PBC
FORCE_FIELD_SETUP_FEATURE Force Field Setup information
v1.0  0 0.000000 0.000000 0.000000 0.000000 0.000000 0.000000 NONE 0 0 0 0 1 0 0 0 0 0 0 0 0
