@<TRIPOS>MOLECULE
MOL005822
   29    28     1     1     0
SMALL
GASTEIGER


@<TRIPOS>ATOM
      1 C           1.885337   -5.348796    0.019151 C.3       1 <1>        -0.027628 
      2 C           0.556610   -4.565005    0.132761 C.3       1 <1>         0.112707 
      3 C           0.826297   -3.129117    0.092413 C.1       1 <1>        -0.071255 
      4 C           1.048534   -1.946855    0.058798 C.1       1 <1>        -0.099656 
      5 C           1.315485   -0.512895    0.017464 C.3       1 <1>         0.009214 
      6 C          -0.015893    0.282015    0.043644 C.3       1 <1>        -0.042171 
      7 C           0.241560    1.813219    0.009845 C.3       1 <1>        -0.052213 
      8 C          -1.090599    2.611453    0.039477 C.3       1 <1>        -0.053278 
      9 C          -0.833735    4.143123    0.020566 C.3       1 <1>        -0.055911 
     10 C          -2.164856    4.938614    0.050692 C.3       1 <1>        -0.065276 
     11 O          -0.288616   -4.940947   -0.967924 O.3       1 <1>        -0.379551 
     12 H           1.683625   -6.430501    0.053163 H         1 <1>         0.026399 
     13 H           2.379732   -5.112047   -0.935701 H         1 <1>         0.026399 
     14 H           2.562573   -5.086352    0.846985 H         1 <1>         0.026399 
     15 H           0.070336   -4.801359    1.095460 H         1 <1>         0.072805 
     16 H           1.938877   -0.254404    0.887586 H         1 <1>         0.039737 
     17 H           1.879749   -0.293635   -0.902372 H         1 <1>         0.039737 
     18 H          -0.627358   -0.008543   -0.826860 H         1 <1>         0.027427 
     19 H          -0.572918    0.022357    0.959306 H         1 <1>         0.027427 
     20 H           0.856201    2.097265    0.879886 H         1 <1>         0.026556 
     21 H           0.800070    2.068750   -0.905775 H         1 <1>         0.026556 
     22 H          -1.701630    2.333721   -0.835151 H         1 <1>         0.026520 
     23 H          -1.652832    2.349235    0.950855 H         1 <1>         0.026520 
     24 H          -0.225896    4.426176    0.896235 H         1 <1>         0.026265 
     25 H          -0.273113    4.412846   -0.890126 H         1 <1>         0.026265 
     26 H          -1.960139    6.020930    0.040255 H         1 <1>         0.022978 
     27 H          -2.780853    4.690435   -0.827729 H         1 <1>         0.022978 
     28 H          -2.735340    4.699274    0.961680 H         1 <1>         0.022978 
     29 H          -1.121307   -4.478955   -0.964784 H         1 <1>         0.211073 
@<TRIPOS>BOND
     1    1    2 1    
     2    1   12 1    
     3    1   13 1    
     4    1   14 1    
     5    2    3 1    
     6    2   11 1    
     7    2   15 1    
     8    3    4 3    
     9    4    5 1    
    10    5    6 1    
    11    5   16 1    
    12    5   17 1    
    13    6    7 1    
    14    6   18 1    
    15    6   19 1    
    16    7    8 1    
    17    7   20 1    
    18    7   21 1    
    19    8    9 1    
    20    8   22 1    
    21    8   23 1    
    22    9   10 1    
    23    9   24 1    
    24    9   25 1    
    25   10   26 1    
    26   10   27 1    
    27   10   28 1    
    28   11   29 1    
@<TRIPOS>SUBSTRUCTURE
     1 ****        1 TEMP              0 ****  ****    0 ROOT 
@<TRIPOS>NORMAL
@<TRIPOS>FF_PBC
FORCE_FIELD_SETUP_FEATURE Force Field Setup information
v1.0  0 0.000000 0.000000 0.000000 0.000000 0.000000 0.000000 NONE 0 0 0 0 1 0 0 0 0 0 0 0 0
