@<TRIPOS>MOLECULE
MOL002264
   79    82     1     1     0
SMALL
GASTEIGER


@<TRIPOS>ATOM
      1 C          -4.969062   -2.440088    3.224312 C.3       1 <1>         0.081607 
      2 C          -4.340715   -2.617580    4.632506 C.3       1 <1>         0.081738 
      3 C          -2.942089   -3.279722    4.531605 C.3       1 <1>        -0.014059 
      4 C          -2.012199   -2.471489    3.583443 C.3       1 <1>         0.030026 
      5 C          -2.604993   -2.236244    2.163812 C.3       1 <1>        -0.010811 
      6 C          -4.027548   -1.609584    2.312694 C.3       1 <1>        -0.017728 
      7 C          -0.668888   -3.120709    3.401991 C.2       1 <1>         0.159823 
      8 C           0.238764   -2.595157    2.372585 C.2       1 <1>        -0.016604 
      9 C          -0.172742   -1.705625    1.455510 C.2       1 <1>        -0.028561 
     10 C          -1.627347   -1.297689    1.360793 C.3       1 <1>         0.015337 
     11 C           0.785058   -1.061710    0.461674 C.3       1 <1>         0.093534 
     12 C           0.312628    0.335962   -0.084106 C.3       1 <1>         0.008431 
     13 C          -0.451115    1.003272    1.110016 C.3       1 <1>        -0.017589 
     14 C          -1.724624    0.236284    1.598906 C.3       1 <1>         0.062940 
     15 C           2.161209   -0.781332    1.147542 C.3       1 <1>        -0.019216 
     16 C           2.640986    0.620497    0.696990 C.3       1 <1>        -0.044001 
     17 C           1.684748    1.024396   -0.452341 C.3       1 <1>        -0.001466 
     18 C           3.992421    1.887431   -2.400216 C.3       1 <1>         0.002210 
     19 C           3.258753    2.874963   -1.421488 C.3       1 <1>         0.086219 
     20 C           1.828277    2.551968   -0.823063 C.3       1 <1>         0.092484 
     21 C          -2.712876   -3.587670    1.372246 C.3       1 <1>        -0.058197 
     22 H          -1.830298   -1.501798    4.072098 H         1 <1>         0.038700 
     23 O          -0.328263   -4.067949    4.092442 O.2       1 <1>        -0.292364 
     24 C          -0.597917    0.214717   -1.359780 C.3       1 <1>        -0.056202 
     25 O           1.835784    3.375222    0.365862 O.3       1 <1>        -0.385999 
     26 C           3.303451    1.472585   -3.739983 C.3       1 <1>         0.059989 
     27 C           3.854139    2.198526   -5.014199 C.3       1 <1>        -0.020542 
     28 C           3.107374    1.752785   -6.307589 C.3       1 <1>        -0.060322 
     29 C           3.761347    3.746875   -4.896955 C.3       1 <1>        -0.060322 
     30 O          -6.214144   -1.725940    3.333187 O.3       1 <1>        -0.389221 
     31 O          -5.228650   -3.434660    5.418556 O.3       1 <1>        -0.389219 
     32 O          -2.901613    0.701921    0.906073 O.3       1 <1>        -0.391159 
     33 C           0.667053    3.125516   -1.700291 C.3       1 <1>        -0.033355 
     34 O           3.292557    4.196337   -1.990672 O.3       1 <1>        -0.388866 
     35 O           3.475045    0.041928   -3.846829 O.3       1 <1>        -0.391444 
     36 O           0.931447   -2.046967   -0.578222 O.3       1 <1>        -0.383700 
     37 H          -5.173528   -3.429003    2.781300 H         1 <1>         0.061906 
     38 H          -4.251910   -1.617878    5.094380 H         1 <1>         0.061909 
     39 H          -3.055757   -4.320878    4.197476 H         1 <1>         0.029787 
     40 H          -2.490128   -3.312930    5.537024 H         1 <1>         0.029787 
     41 H          -4.494845   -1.482887    1.323101 H         1 <1>         0.029653 
     42 H          -3.970533   -0.617680    2.782362 H         1 <1>         0.029653 
     43 H           1.263000   -2.964153    2.403015 H         1 <1>         0.065292 
     44 H          -1.940298   -1.443874    0.323683 H         1 <1>         0.037719 
     45 H          -0.771870    2.020278    0.861396 H         1 <1>         0.029660 
     46 H           0.238109    1.082831    1.964813 H         1 <1>         0.029660 
     47 H          -1.842213    0.436849    2.678101 H         1 <1>         0.059938 
     48 H           2.885463   -1.564692    0.867879 H         1 <1>         0.029637 
     49 H           2.098050   -0.760965    2.248188 H         1 <1>         0.029637 
     50 H           2.555094    1.340168    1.526640 H         1 <1>         0.027001 
     51 H           3.703323    0.595470    0.409038 H         1 <1>         0.027001 
     52 H           2.028975    0.478176   -1.340124 H         1 <1>         0.033552 
     53 H           4.974954    2.321191   -2.643381 H         1 <1>         0.031601 
     54 H           4.235053    0.968836   -1.845635 H         1 <1>         0.031601 
     55 H           3.948460    2.904868   -0.554590 H         1 <1>         0.062265 
     56 H          -1.719220   -3.989389    1.124883 H         1 <1>         0.023546 
     57 H          -3.245519   -3.433097    0.420789 H         1 <1>         0.023546 
     58 H          -3.249139   -4.376770    1.910586 H         1 <1>         0.023546 
     59 H          -0.985478   -0.796325   -1.528123 H         1 <1>         0.023617 
     60 H          -0.059824    0.441325   -2.288857 H         1 <1>         0.023617 
     61 H          -1.460251    0.895083   -1.304626 H         1 <1>         0.023617 
     62 H           1.038571    3.381569    0.877850 H         1 <1>         0.210271 
     63 H           2.230565    1.665494   -3.667611 H         1 <1>         0.059649 
     64 H           4.916926    1.925167   -5.133892 H         1 <1>         0.032028 
     65 H           3.462358    2.323143   -7.179923 H         1 <1>         0.023313 
     66 H           3.275369    0.690823   -6.538050 H         1 <1>         0.023313 
     67 H           2.025844    1.925012   -6.201133 H         1 <1>         0.023313 
     68 H           4.045539    4.231522   -5.843812 H         1 <1>         0.023313 
     69 H           4.446260    4.133447   -4.130101 H         1 <1>         0.023313 
     70 H           2.732500    4.047964   -4.647952 H         1 <1>         0.023313 
     71 H          -6.830499   -2.172999    3.906365 H         1 <1>         0.209888 
     72 H          -4.925981   -3.564921    6.312157 H         1 <1>         0.209888 
     73 H          -3.107000    1.620243    1.053258 H         1 <1>         0.209802 
     74 H          -0.293850    3.030782   -1.181557 H         1 <1>         0.025814 
     75 H           0.550254    2.655908   -2.678766 H         1 <1>         0.025814 
     76 H           0.808074    4.200618   -1.877528 H         1 <1>         0.025814 
     77 H           3.047899    4.871379   -1.363224 H         1 <1>         0.209902 
     78 H           2.963067   -0.378610   -4.529036 H         1 <1>         0.209789 
     79 H           1.552579   -1.810963   -1.257775 H         1 <1>         0.210627 
@<TRIPOS>BOND
     1    1    2 1    
     2    6    1 1    
     3    1   30 1    
     4    1   37 1    
     5    3    2 1    
     6    2   31 1    
     7    2   38 1    
     8    4    3 1    
     9    3   39 1    
    10    3   40 1    
    11    5    4 1    
    12    7    4 1    
    13    4   22 1    
    14    5    6 1    
    15   10    5 1    
    16    5   21 1    
    17    6   41 1    
    18    6   42 1    
    19    8    7 1    
    20    7   23 2    
    21    9    8 2    
    22    8   43 1    
    23    9   10 1    
    24   11    9 1    
    25   14   10 1    
    26   10   44 1    
    27   12   11 1    
    28   15   11 1    
    29   11   36 1    
    30   12   13 1    
    31   17   12 1    
    32   12   24 1    
    33   13   14 1    
    34   13   45 1    
    35   13   46 1    
    36   14   32 1    
    37   14   47 1    
    38   16   15 1    
    39   15   48 1    
    40   15   49 1    
    41   17   16 1    
    42   16   50 1    
    43   16   51 1    
    44   20   17 1    
    45   17   52 1    
    46   19   18 1    
    47   18   26 1    
    48   18   53 1    
    49   18   54 1    
    50   19   20 1    
    51   19   34 1    
    52   19   55 1    
    53   20   25 1    
    54   20   33 1    
    55   21   56 1    
    56   21   57 1    
    57   21   58 1    
    58   24   59 1    
    59   24   60 1    
    60   24   61 1    
    61   25   62 1    
    62   26   27 1    
    63   26   35 1    
    64   26   63 1    
    65   27   28 1    
    66   27   29 1    
    67   27   64 1    
    68   28   65 1    
    69   28   66 1    
    70   28   67 1    
    71   29   68 1    
    72   29   69 1    
    73   29   70 1    
    74   30   71 1    
    75   31   72 1    
    76   32   73 1    
    77   33   74 1    
    78   33   75 1    
    79   33   76 1    
    80   34   77 1    
    81   35   78 1    
    82   36   79 1    
@<TRIPOS>SUBSTRUCTURE
     1 ****       18 TEMP              0 ****  ****    0 ROOT 
@<TRIPOS>NORMAL
@<TRIPOS>FF_PBC
FORCE_FIELD_SETUP_FEATURE Force Field Setup information
v1.0  0 0.000000 0.000000 0.000000 0.000000 0.000000 0.000000 NONE 0 0 0 0 1 0 0 0 0 0 0 0 0
