@<TRIPOS>MOLECULE
MOL004670
   29    30     1     1     0
SMALL
GASTEIGER


@<TRIPOS>ATOM
      1 C           1.249704   -0.696893   -0.691724 C.3       1 <1>        -0.033004 
      2 C           0.101004   -1.744044   -0.748122 C.3       1 <1>        -0.023252 
      3 C          -1.326635   -1.120386   -0.555626 C.3       1 <1>         0.058345 
      4 C          -1.328401    0.440852   -0.388895 C.3       1 <1>        -0.014457 
      5 C           0.110470    1.034639   -0.345366 C.3       1 <1>        -0.030442 
      6 C           1.125177    0.246191    0.533806 C.3       1 <1>        -0.028809 
      7 C           0.828894    0.478316   -1.606326 C.3       1 <1>        -0.045969 
      8 O          -2.134493   -1.503875   -1.688299 O.3       1 <1>        -0.391504 
      9 C           2.428809    1.067585    0.794555 C.3       1 <1>        -0.059296 
     10 C           0.688041   -0.383347    1.890142 C.3       1 <1>        -0.059296 
     11 C          -2.232795    0.945701    0.771299 C.3       1 <1>        -0.059800 
     12 H           2.253389   -1.114037   -0.877102 H         1 <1>         0.030692 
     13 H           0.139879    2.131929   -0.243924 H         1 <1>         0.030950 
     14 H           0.299741   -2.529586   -0.001190 H         1 <1>         0.029296 
     15 H           0.156326   -2.229858   -1.735935 H         1 <1>         0.029296 
     16 H          -1.803862   -1.593068    0.321255 H         1 <1>         0.059591 
     17 H          -1.782135    0.876990   -1.296914 H         1 <1>         0.032579 
     18 H           1.671352    1.095197   -1.953511 H         1 <1>         0.027104 
     19 H           0.205473    0.210624   -2.475426 H         1 <1>         0.027104 
     20 H          -3.042149   -1.221186   -1.624938 H         1 <1>         0.209788 
     21 H           3.214850    0.401688    1.181976 H         1 <1>         0.023516 
     22 H           2.226304    1.840889    1.551109 H         1 <1>         0.023516 
     23 H           2.838864    1.576881   -0.086909 H         1 <1>         0.023516 
     24 H           1.513886   -0.995576    2.282673 H         1 <1>         0.023516 
     25 H          -0.188820   -1.033415    1.849219 H         1 <1>         0.023516 
     26 H           0.479814    0.418236    2.614586 H         1 <1>         0.023516 
     27 H          -2.259322    2.046821    0.779699 H         1 <1>         0.023330 
     28 H          -3.261409    0.577903    0.629894 H         1 <1>         0.023330 
     29 H          -1.883488    0.609163    1.754987 H         1 <1>         0.023330 
@<TRIPOS>BOND
     1    1    2 1    
     2    1    6 1    
     3    1    7 1    
     4    1   12 1    
     5    2    3 1    
     6    2   14 1    
     7    2   15 1    
     8    3    4 1    
     9    3    8 1    
    10    3   16 1    
    11    4    5 1    
    12    4   11 1    
    13    4   17 1    
    14    5    6 1    
    15    5    7 1    
    16    5   13 1    
    17    6    9 1    
    18    6   10 1    
    19    7   18 1    
    20    7   19 1    
    21    8   20 1    
    22    9   21 1    
    23    9   22 1    
    24    9   23 1    
    25   10   24 1    
    26   10   25 1    
    27   10   26 1    
    28   11   27 1    
    29   11   28 1    
    30   11   29 1    
@<TRIPOS>SUBSTRUCTURE
     1 ****        1 TEMP              0 ****  ****    0 ROOT 
@<TRIPOS>NORMAL
@<TRIPOS>FF_PBC
FORCE_FIELD_SETUP_FEATURE Force Field Setup information
v1.0  0 0.000000 0.000000 0.000000 0.000000 0.000000 0.000000 NONE 0 0 0 0 1 0 0 0 0 0 0 0 0
