@<TRIPOS>MOLECULE
MOL000905
   26    27     1     1     0
SMALL
GASTEIGER


@<TRIPOS>ATOM
      1 C           0.032728    0.965309    0.550582 C.3       1 <1>        -0.014485 
      2 C          -1.399713    0.475105    0.511763 C.2       1 <1>        -0.072991 
      3 C          -1.593885   -1.015209    0.731230 C.3       1 <1>        -0.031447 
      4 C          -0.286476   -1.836173    0.469251 C.3       1 <1>        -0.045995 
      5 C           0.969587   -0.917592    0.458888 C.3       1 <1>        -0.034499 
      6 C           0.823846    0.240994   -0.569608 C.3       1 <1>        -0.025534 
      7 C           0.798212    0.118505    1.600770 C.3       1 <1>        -0.042663 
      8 C          -2.429099    1.302022    0.291737 C.2       1 <1>        -0.099166 
      9 C           2.185680    0.930319   -0.892021 C.3       1 <1>        -0.059017 
     10 C           0.073962   -0.038643   -1.908650 C.3       1 <1>        -0.059017 
     11 H           0.170961    2.056684    0.611340 H         1 <1>         0.035088 
     12 H          -1.898216   -1.130126    1.784285 H         1 <1>         0.031008 
     13 H          -2.419150   -1.404522    0.113095 H         1 <1>         0.031008 
     14 H          -0.162980   -2.598792    1.256157 H         1 <1>         0.027113 
     15 H          -0.332334   -2.373931   -0.491066 H         1 <1>         0.027113 
     16 H           1.928793   -1.460276    0.431067 H         1 <1>         0.030640 
     17 H           1.745133    0.575731    1.925838 H         1 <1>         0.027397 
     18 H           0.232401   -0.200851    2.489906 H         1 <1>         0.027397 
     19 H          -3.452005    0.927739    0.268331 H         1 <1>         0.053449 
     20 H          -2.271775    2.367885    0.130389 H         1 <1>         0.053449 
     21 H           2.002953    1.876258   -1.424073 H         1 <1>         0.023525 
     22 H           2.780292    0.273328   -1.544723 H         1 <1>         0.023525 
     23 H           2.796907    1.160200   -0.009377 H         1 <1>         0.023525 
     24 H          -0.930792   -0.467008   -1.804381 H         1 <1>         0.023525 
     25 H          -0.037016    0.905583   -2.462596 H         1 <1>         0.023525 
     26 H           0.672186   -0.732639   -2.517937 H         1 <1>         0.023525 
@<TRIPOS>BOND
     1    1    2 1    
     2    1    6 1    
     3    1    7 1    
     4    1   11 1    
     5    2    3 1    
     6    2    8 2    
     7    3    4 1    
     8    3   12 1    
     9    3   13 1    
    10    4    5 1    
    11    4   14 1    
    12    4   15 1    
    13    5    6 1    
    14    5    7 1    
    15    5   16 1    
    16    6    9 1    
    17    6   10 1    
    18    7   17 1    
    19    7   18 1    
    20    8   19 1    
    21    8   20 1    
    22    9   21 1    
    23    9   22 1    
    24    9   23 1    
    25   10   24 1    
    26   10   25 1    
    27   10   26 1    
@<TRIPOS>SUBSTRUCTURE
     1 ****        1 TEMP              0 ****  ****    0 ROOT 
@<TRIPOS>NORMAL
@<TRIPOS>FF_PBC
FORCE_FIELD_SETUP_FEATURE Force Field Setup information
v1.0  0 0.000000 0.000000 0.000000 0.000000 0.000000 0.000000 NONE 0 0 0 0 1 0 0 0 0 0 0 0 0
