@<TRIPOS>MOLECULE
MOL000029
   39    39     1     1     0
SMALL
GASTEIGER


@<TRIPOS>ATOM
      1 C           1.733493    0.051746    0.421725 C.2       1 <1>        -0.076493 
      2 C           0.888617   -0.810664    1.015655 C.2       1 <1>        -0.084228 
      3 C           0.315926   -2.087683    0.429897 C.3       1 <1>        -0.025904 
      4 C          -1.247252   -2.077988    0.519984 C.3       1 <1>        -0.013453 
      5 C          -1.721855   -0.658187    0.273624 C.2       1 <1>        -0.081679 
      6 C          -1.352393    0.034469   -0.811104 C.2       1 <1>        -0.083430 
      7 C          -1.711968    1.475381   -1.047862 C.3       1 <1>        -0.013769 
      8 C          -0.414956    2.253915   -1.160971 C.2       1 <1>        -0.072879 
      9 C           0.187005    2.792347    0.127427 C.3       1 <1>        -0.031418 
     10 C           1.725266    2.628391    0.349622 C.3       1 <1>        -0.045680 
     11 C           2.136048    1.338090    1.118416 C.3       1 <1>        -0.031718 
     12 C           0.140368    2.468141   -2.362711 C.2       1 <1>        -0.099155 
     13 C          -1.876616   -3.035474   -0.534160 C.3       1 <1>        -0.056067 
     14 C          -1.713953   -2.535227    1.936323 C.3       1 <1>        -0.056067 
     15 C           2.343837   -0.174410   -0.945724 C.3       1 <1>        -0.043787 
     16 H           0.547961   -0.580944    2.023819 H         1 <1>         0.057181 
     17 H           0.600951   -2.197740   -0.624591 H         1 <1>         0.031557 
     18 H           0.732164   -2.955179    0.965050 H         1 <1>         0.031557 
     19 H          -2.361141   -0.175513    1.014005 H         1 <1>         0.057453 
     20 H          -0.744880   -0.435238   -1.582204 H         1 <1>         0.057228 
     21 H          -2.343663    1.896116   -0.249707 H         1 <1>         0.035222 
     22 H          -2.296259    1.529742   -1.979887 H         1 <1>         0.035222 
     23 H          -0.053167    3.867333    0.098145 H         1 <1>         0.031009 
     24 H          -0.325665    2.373042    1.007837 H         1 <1>         0.031009 
     25 H           2.067542    3.475206    0.970800 H         1 <1>         0.027132 
     26 H           2.283248    2.688707   -0.594058 H         1 <1>         0.027132 
     27 H           1.708109    1.404262    2.131949 H         1 <1>         0.030999 
     28 H           3.231713    1.324889    1.243518 H         1 <1>         0.030999 
     29 H           1.047705    3.051532   -2.500867 H         1 <1>         0.053449 
     30 H          -0.309259    2.063765   -3.269325 H         1 <1>         0.053449 
     31 H          -1.593978   -2.754794   -1.559889 H         1 <1>         0.023804 
     32 H          -1.539287   -4.068182   -0.356944 H         1 <1>         0.023804 
     33 H          -2.975141   -3.007945   -0.467416 H         1 <1>         0.023804 
     34 H          -1.369978   -3.559463    2.146621 H         1 <1>         0.023804 
     35 H          -1.325044   -1.874078    2.724260 H         1 <1>         0.023804 
     36 H          -2.813134   -2.525035    1.999093 H         1 <1>         0.023804 
     37 H           3.264740    0.414286   -1.072591 H         1 <1>         0.027436 
     38 H           2.626754   -1.226202   -1.092863 H         1 <1>         0.027436 
     39 H           1.637253    0.126212   -1.731062 H         1 <1>         0.027436 
@<TRIPOS>BOND
     1    1    2 2    
     2    1   11 1    
     3    1   15 1    
     4    2    3 1    
     5    2   16 1    
     6    3    4 1    
     7    3   17 1    
     8    3   18 1    
     9    4    5 1    
    10    4   13 1    
    11    4   14 1    
    12    5    6 2    
    13    5   19 1    
    14    6    7 1    
    15    6   20 1    
    16    7    8 1    
    17    7   21 1    
    18    7   22 1    
    19    8    9 1    
    20    8   12 2    
    21    9   10 1    
    22    9   23 1    
    23    9   24 1    
    24   10   11 1    
    25   10   25 1    
    26   10   26 1    
    27   11   27 1    
    28   11   28 1    
    29   12   29 1    
    30   12   30 1    
    31   13   31 1    
    32   13   32 1    
    33   13   33 1    
    34   14   34 1    
    35   14   35 1    
    36   14   36 1    
    37   15   37 1    
    38   15   38 1    
    39   15   39 1    
@<TRIPOS>SUBSTRUCTURE
     1 ****        1 TEMP              0 ****  ****    0 ROOT 
@<TRIPOS>NORMAL
@<TRIPOS>FF_PBC
FORCE_FIELD_SETUP_FEATURE Force Field Setup information
v1.0  0 0.000000 0.000000 0.000000 0.000000 0.000000 0.000000 NONE 0 0 0 0 1 0 0 0 0 0 0 0 0
