@<TRIPOS>MOLECULE
MOL002302
   51    53     1     1     0
SMALL
GASTEIGER


@<TRIPOS>ATOM
      1 C          -4.932236   -2.507440   -1.984129 C.3       1 <1>         0.116324 
      2 C          -4.790380   -4.033747   -1.760228 C.3       1 <1>         0.134103 
      3 C          -4.541279   -4.321450   -0.258884 C.3       1 <1>         0.187921 
      4 O          -3.395326   -3.597465    0.216959 O.3       1 <1>        -0.317183 
      5 C          -3.532890   -2.168149    0.122791 C.3       1 <1>         0.196053 
      6 C          -3.729670   -1.747171   -1.359217 C.3       1 <1>         0.134680 
      7 O          -4.238926   -5.715977   -0.108485 O.3       1 <1>        -0.364817 
      8 O          -4.995694   -2.242609   -3.398651 O.3       1 <1>        -0.386314 
      9 O          -2.283997   -1.700450    0.663158 O.3       1 <1>        -0.312362 
     10 O          -3.897633   -0.324267   -1.532350 O.3       1 <1>        -0.384089 
     11 O          -5.992162   -4.700387   -2.198244 O.3       1 <1>        -0.384108 
     12 C          -2.922043    0.636520    1.073821 C.ar      1 <1>        -0.001764 
     13 C          -2.545327    2.066805    1.133214 C.ar      1 <1>         0.075585 
     14 C          -1.206872    2.449707    0.890272 C.ar      1 <1>        -0.024623 
     15 C          -0.175736    1.428593    0.581848 C.ar      1 <1>        -0.020142 
     16 C          -0.560640    0.070812    0.483813 C.ar      1 <1>        -0.024253 
     17 C          -1.960815   -0.341923    0.738635 C.ar      1 <1>         0.082459 
     18 O          -3.530130    3.013479    1.430633 O.3       1 <1>        -0.359731 
     19 C           1.255712    1.890520    0.391976 C.2       1 <1>        -0.053877 
     20 C           2.308993    1.146145    0.759760 C.2       1 <1>        -0.053953 
     21 C           3.760457    1.570900    0.647464 C.ar      1 <1>        -0.022421 
     22 C           4.804338    0.518467    0.727600 C.ar      1 <1>        -0.022243 
     23 C           4.173554    2.917606    0.487825 C.ar      1 <1>        -0.051993 
     24 C           5.613604    3.263060    0.405557 C.ar      1 <1>        -0.028600 
     25 C           6.597351    2.250512    0.495981 C.ar      1 <1>         0.105438 
     26 C           6.166449    0.839578    0.659969 C.ar      1 <1>         0.102997 
     27 O           7.114905   -0.179431    0.748328 O.3       1 <1>        -0.357256 
     28 O           7.972754    2.526220    0.436819 O.3       1 <1>        -0.345349 
     29 C           8.478320    3.869075    0.517035 C.3       1 <1>         0.043135 
     30 H          -5.871330   -2.184267   -1.501954 H         1 <1>         0.064843 
     31 H          -3.917920   -4.388996   -2.335729 H         1 <1>         0.067092 
     32 H          -5.446598   -4.073855    0.324228 H         1 <1>         0.093635 
     33 H          -4.379875   -1.843280    0.746306 H         1 <1>         0.094245 
     34 H          -2.815134   -2.035686   -1.901046 H         1 <1>         0.067110 
     35 H          -3.998667   -5.927705    0.788184 H         1 <1>         0.212562 
     36 H          -5.086236   -1.314506   -3.594311 H         1 <1>         0.210006 
     37 H          -4.686304    0.022361   -1.127869 H         1 <1>         0.210111 
     38 H          -5.935701   -5.645408   -2.086623 H         1 <1>         0.210110 
     39 H          -3.946478    0.369413    1.296569 H         1 <1>         0.066911 
     40 H          -0.922860    3.496554    0.931016 H         1 <1>         0.064912 
     41 H           0.161222   -0.694954    0.225677 H         1 <1>         0.064921 
     42 H          -3.235213    3.916421    1.394193 H         1 <1>         0.217315 
     43 H           1.378956    2.876813   -0.048345 H         1 <1>         0.062363 
     44 H           2.137922    0.160474    1.188983 H         1 <1>         0.062362 
     45 H           4.519724   -0.521286    0.841202 H         1 <1>         0.064994 
     46 H           3.451805    3.722908    0.433261 H         1 <1>         0.062425 
     47 H           5.884011    4.303569    0.278581 H         1 <1>         0.064429 
     48 H           7.999409    0.171744    0.705806 H         1 <1>         0.217422 
     49 H           9.577288    3.813183    0.530412 H         1 <1>         0.052871 
     50 H           8.142461    4.359266    1.444021 H         1 <1>         0.052871 
     51 H           8.176736    4.464338   -0.357914 H         1 <1>         0.052871 
@<TRIPOS>BOND
     1    1    2 1    
     2    6    1 1    
     3    1    8 1    
     4    1   30 1    
     5    3    2 1    
     6    2   11 1    
     7    2   31 1    
     8    4    3 1    
     9    3    7 1    
    10    3   32 1    
    11    5    4 1    
    12    5    6 1    
    13    9    5 1    
    14    5   33 1    
    15    6   10 1    
    16    6   34 1    
    17    7   35 1    
    18    8   36 1    
    19   17    9 1    
    20   10   37 1    
    21   11   38 1    
    22   12   13 1    
    23   12   17 2    
    24   12   39 1    
    25   13   14 2    
    26   13   18 1    
    27   14   15 1    
    28   14   40 1    
    29   15   16 2    
    30   15   19 1    
    31   16   17 1    
    32   16   41 1    
    33   18   42 1    
    34   19   20 2    
    35   19   43 1    
    36   20   21 1    
    37   20   44 1    
    38   21   22 1    
    39   21   23 2    
    40   22   26 2    
    41   22   45 1    
    42   23   24 1    
    43   23   46 1    
    44   24   25 2    
    45   24   47 1    
    46   25   26 1    
    47   25   28 1    
    48   26   27 1    
    49   27   48 1    
    50   28   29 1    
    51   29   49 1    
    52   29   50 1    
    53   29   51 1    
@<TRIPOS>SUBSTRUCTURE
     1 ****       12 TEMP              0 ****  ****    0 ROOT 
@<TRIPOS>NORMAL
@<TRIPOS>FF_PBC
FORCE_FIELD_SETUP_FEATURE Force Field Setup information
v1.0  0 0.000000 0.000000 0.000000 0.000000 0.000000 0.000000 NONE 0 0 0 0 1 0 0 0 0 0 0 0 0
