@<TRIPOS>MOLECULE
MOL012995
   80    84     1     1     0
SMALL
GASTEIGER


@<TRIPOS>ATOM
      1 C          -3.979959   -2.994089   -0.496836 C.3       1 <1>        -0.004897 
      2 C          -2.577721   -2.409069   -0.156378 C.3       1 <1>        -0.027111 
      3 C          -2.652827   -0.851345   -0.211738 C.3       1 <1>        -0.013723 
      4 C          -1.152432   -0.353931   -0.333132 C.3       1 <1>        -0.028726 
      5 C          -0.152491   -0.846531    0.796508 C.3       1 <1>        -0.023049 
      6 C           1.363809   -0.493981    0.379059 C.3       1 <1>        -0.023246 
      7 C           1.437395    1.076087    0.223693 C.3       1 <1>        -0.030772 
      8 C           2.896702    1.606090    0.057416 C.3       1 <1>        -0.016530 
      9 C           3.837964    1.154931    1.205594 C.3       1 <1>         0.059584 
     10 C           3.879714   -0.394900    1.252956 C.3       1 <1>        -0.037524 
     11 C           2.443879   -0.985353    1.430045 C.3       1 <1>        -0.045876 
     12 C          -4.582460   -1.870098   -1.402067 C.3       1 <1>         0.070328 
     13 C          -3.516752   -0.728646   -1.511030 C.3       1 <1>         0.046805 
     14 C          -1.793731   -2.935715    1.071920 C.3       1 <1>        -0.048598 
     15 C          -0.326986   -2.398068    1.002723 C.3       1 <1>        -0.046559 
     16 C          -0.975924    1.157700   -0.687406 C.3       1 <1>        -0.048896 
     17 C           0.506167    1.565664   -0.920845 C.3       1 <1>        -0.049113 
     18 C           3.167009    3.136409    0.009297 C.3       1 <1>        -0.016314 
     19 C           4.679594    3.266704    0.388814 C.3       1 <1>        -0.045260 
     20 C           5.156879    1.826407    0.731445 C.3       1 <1>        -0.037496 
     21 C          -3.870459   -4.342587   -1.278810 C.3       1 <1>        -0.057169 
     22 C          -4.844896   -3.277058    0.770964 C.3       1 <1>        -0.057169 
     23 C          -3.478268   -0.176751    0.939754 C.3       1 <1>        -0.058303 
     24 C          -0.559813   -0.172603    2.165056 C.3       1 <1>        -0.058784 
     25 C           1.833630   -1.205773   -0.960415 C.3       1 <1>        -0.058792 
     26 C           3.523370    1.724095    2.588822 C.2       1 <1>         0.266102 
     27 O           4.353595    2.338836    3.240701 O.2       1 <1>        -0.264547 
     28 O          -4.937235   -2.339754   -2.717650 O.3       1 <1>        -0.390545 
     29 C          -4.218823    0.586630   -1.760657 C.2       1 <1>         0.126368 
     30 O          -5.280712    0.604141   -2.361354 O.2       1 <1>        -0.300632 
     31 C           2.866392    3.849445   -1.302217 C.2       1 <1>        -0.076310 
     32 C           2.154090    4.984924   -1.332388 C.2       1 <1>        -0.099438 
     33 O           2.301533    1.535650    3.087036 O.3       1 <1>        -0.330843 
     34 C           3.405084    3.240520   -2.581845 C.3       1 <1>        -0.043768 
     35 H          -1.967609   -2.743297   -1.012813 H         1 <1>         0.031231 
     36 H           3.277537    1.216289   -0.892352 H         1 <1>         0.031953 
     37 H          -0.832427   -0.834287   -1.259337 H         1 <1>         0.031175 
     38 H           1.057046    1.571581    1.123022 H         1 <1>         0.030934 
     39 H           4.522363   -0.699146    2.096137 H         1 <1>         0.027568 
     40 H           4.364276   -0.787436    0.348560 H         1 <1>         0.027568 
     41 H           2.537268   -2.081672    1.392196 H         1 <1>         0.027106 
     42 H           2.196569   -0.775299    2.470894 H         1 <1>         0.027106 
     43 H          -5.510545   -1.508347   -0.926520 H         1 <1>         0.060558 
     44 H          -2.896890   -0.932801   -2.398848 H         1 <1>         0.040545 
     45 H          -1.768373   -4.038187    1.035260 H         1 <1>         0.026846 
     46 H          -2.296224   -2.680603    2.012686 H         1 <1>         0.026846 
     47 H           0.205379   -2.717268    1.913226 H         1 <1>         0.027087 
     48 H           0.111934   -2.947798    0.162678 H         1 <1>         0.027087 
     49 H          -1.511242    1.385541   -1.622901 H         1 <1>         0.026837 
     50 H          -1.384977    1.826156    0.080698 H         1 <1>         0.026837 
     51 H           0.540925    2.665107   -0.983564 H         1 <1>         0.026829 
     52 H           0.853576    1.185689   -1.890682 H         1 <1>         0.026829 
     53 H           2.561689    3.576934    0.820618 H         1 <1>         0.034848 
     54 H           4.790044    3.923261    1.268679 H         1 <1>         0.027135 
     55 H           5.304052    3.698906   -0.409343 H         1 <1>         0.027135 
     56 H           5.970882    1.802138    1.473919 H         1 <1>         0.027568 
     57 H           5.535196    1.334418   -0.181012 H         1 <1>         0.027568 
     58 H          -4.873911   -4.720579   -1.529217 H         1 <1>         0.023588 
     59 H          -3.356046   -5.102527   -0.671786 H         1 <1>         0.023588 
     60 H          -3.314089   -4.225387   -2.221817 H         1 <1>         0.023588 
     61 H          -4.974539   -2.399735    1.413600 H         1 <1>         0.023588 
     62 H          -4.387059   -4.071718    1.378202 H         1 <1>         0.023588 
     63 H          -5.847683   -3.619033    0.470930 H         1 <1>         0.023588 
     64 H          -3.223437    0.883048    1.045810 H         1 <1>         0.023545 
     65 H          -4.560004   -0.189511    0.756845 H         1 <1>         0.023545 
     66 H          -3.351318   -0.647227    1.915925 H         1 <1>         0.023545 
     67 H          -0.969426    0.836183    2.057530 H         1 <1>         0.023533 
     68 H           0.242890   -0.071788    2.893669 H         1 <1>         0.023533 
     69 H          -1.302081   -0.752233    2.716537 H         1 <1>         0.023533 
     70 H           2.823162   -0.888469   -1.296441 H         1 <1>         0.023533 
     71 H           1.943076   -2.291448   -0.849245 H         1 <1>         0.023533 
     72 H           1.209674   -1.061955   -1.845002 H         1 <1>         0.023533 
     73 H          -5.313000   -1.650998   -3.258548 H         1 <1>         0.209827 
     74 H          -3.821361    1.541361   -1.423400 H         1 <1>         0.103011 
     75 H           1.935921    5.494368   -2.271224 H         1 <1>         0.053440 
     76 H           1.762854    5.444311   -0.424575 H         1 <1>         0.053440 
     77 H           2.195791    1.925022    3.948865 H         1 <1>         0.220226 
     78 H           4.401328    2.797650   -2.441258 H         1 <1>         0.027436 
     79 H           3.491914    3.995343   -3.377185 H         1 <1>         0.027436 
     80 H           2.721677    2.457661   -2.936850 H         1 <1>         0.027436 
@<TRIPOS>BOND
     1    1    2 1    
     2    1   12 1    
     3    1   21 1    
     4    1   22 1    
     5    2    3 1    
     6    2   14 1    
     7    2   35 1    
     8    3    4 1    
     9    3   13 1    
    10    3   23 1    
    11    4    5 1    
    12    4   16 1    
    13    4   37 1    
    14    5    6 1    
    15    5   15 1    
    16    5   24 1    
    17    6    7 1    
    18    6   11 1    
    19    6   25 1    
    20    7    8 1    
    21    7   17 1    
    22    7   38 1    
    23    8    9 1    
    24    8   18 1    
    25    8   36 1    
    26    9   10 1    
    27    9   20 1    
    28    9   26 1    
    29   10   11 1    
    30   10   39 1    
    31   10   40 1    
    32   11   41 1    
    33   11   42 1    
    34   12   13 1    
    35   12   28 1    
    36   12   43 1    
    37   13   29 1    
    38   13   44 1    
    39   14   15 1    
    40   14   45 1    
    41   14   46 1    
    42   15   47 1    
    43   15   48 1    
    44   16   17 1    
    45   16   49 1    
    46   16   50 1    
    47   17   51 1    
    48   17   52 1    
    49   18   19 1    
    50   18   31 1    
    51   18   53 1    
    52   19   20 1    
    53   19   54 1    
    54   19   55 1    
    55   20   56 1    
    56   20   57 1    
    57   21   58 1    
    58   21   59 1    
    59   21   60 1    
    60   22   61 1    
    61   22   62 1    
    62   22   63 1    
    63   23   64 1    
    64   23   65 1    
    65   23   66 1    
    66   24   67 1    
    67   24   68 1    
    68   24   69 1    
    69   25   70 1    
    70   25   71 1    
    71   25   72 1    
    72   26   27 2    
    73   26   33 1    
    74   28   73 1    
    75   29   30 2    
    76   29   74 1    
    77   31   32 2    
    78   31   34 1    
    79   32   75 1    
    80   32   76 1    
    81   33   77 1    
    82   34   78 1    
    83   34   79 1    
    84   34   80 1    
@<TRIPOS>SUBSTRUCTURE
     1 ****        1 TEMP              0 ****  ****    0 ROOT 
@<TRIPOS>NORMAL
@<TRIPOS>FF_PBC
FORCE_FIELD_SETUP_FEATURE Force Field Setup information
v1.0  0 0.000000 0.000000 0.000000 0.000000 0.000000 0.000000 NONE 0 0 0 0 1 0 0 0 0 0 0 0 0
