@<TRIPOS>MOLECULE
MOL004666
   23    23     1     1     0
SMALL
GASTEIGER


@<TRIPOS>ATOM
      1 C           0.602938   -0.309986    0.083632 C.ar      1 <1>         0.049062 
      2 C           1.324861   -1.569552    0.420215 C.ar      1 <1>        -0.016538 
      3 C          -0.850516   -0.387509    0.102170 C.ar      1 <1>        -0.046282 
      4 C           1.488240    0.890638   -0.234903 C.2       1 <1>         0.293884 
      5 C           0.660747   -2.762263    0.736975 C.ar      1 <1>         0.102930 
      6 C          -1.549729   -1.651603    0.437883 C.ar      1 <1>        -0.028668 
      7 O           1.206241    2.164687   -0.574867 O.3       1 <1>        -0.311706 
      8 O           2.690619    0.692478   -0.180190 O.2       1 <1>        -0.259225 
      9 C          -0.820031   -2.815446    0.748981 C.ar      1 <1>         0.102225 
     10 O           1.408433   -3.900947    1.041404 O.3       1 <1>        -0.357260 
     11 C          -0.154697    2.595128   -0.691697 C.3       1 <1>         0.054573 
     12 O          -1.457948   -4.018946    1.068646 O.3       1 <1>        -0.357274 
     13 C          -0.122449    4.090867   -1.090338 C.3       1 <1>        -0.040969 
     14 H           2.408972   -1.596640    0.429006 H         1 <1>         0.065179 
     15 H          -1.490052    0.448348   -0.121410 H         1 <1>         0.062608 
     16 H          -2.634775   -1.670397    0.441304 H         1 <1>         0.064423 
     17 H           0.845105   -4.642903    1.238255 H         1 <1>         0.217422 
     18 H          -0.675758    2.047894   -1.494240 H         1 <1>         0.056314 
     19 H          -0.678456    2.519574    0.275262 H         1 <1>         0.056314 
     20 H          -2.407653   -3.977116    1.056083 H         1 <1>         0.217422 
     21 H          -1.145046    4.486293   -1.197297 H         1 <1>         0.025189 
     22 H           0.405044    4.675087   -0.319833 H         1 <1>         0.025189 
     23 H           0.407677    4.214470   -2.047902 H         1 <1>         0.025189 
@<TRIPOS>BOND
     1    1    2 1    
     2    1    3 2    
     3    1    4 1    
     4    2    5 2    
     5    2   14 1    
     6    3    6 1    
     7    3   15 1    
     8    4    7 1    
     9    4    8 2    
    10    5    9 1    
    11    5   10 1    
    12    6    9 2    
    13    6   16 1    
    14    7   11 1    
    15    9   12 1    
    16   10   17 1    
    17   11   13 1    
    18   11   18 1    
    19   11   19 1    
    20   12   20 1    
    21   13   21 1    
    22   13   22 1    
    23   13   23 1    
@<TRIPOS>SUBSTRUCTURE
     1 ****        1 TEMP              0 ****  ****    0 ROOT 
@<TRIPOS>NORMAL
@<TRIPOS>FF_PBC
FORCE_FIELD_SETUP_FEATURE Force Field Setup information
v1.0  0 0.000000 0.000000 0.000000 0.000000 0.000000 0.000000 NONE 0 0 0 0 1 0 0 0 0 0 0 0 0
