@<TRIPOS>MOLECULE
MOL006944
   54    53     1     1     0
SMALL
GASTEIGER


@<TRIPOS>ATOM
      1 C          10.818531    0.659162   -0.000009 C.2       1 <1>         0.259588 
      2 C           9.571194   -0.186548    0.000162 C.3       1 <1>         0.033006 
      3 C           8.273719    0.666488   -0.000016 C.3       1 <1>        -0.044061 
      4 C           7.004818   -0.229492    0.000153 C.3       1 <1>        -0.052587 
      5 C           5.709174    0.627170   -0.000040 C.3       1 <1>        -0.052768 
      6 C           4.438593   -0.266423    0.000085 C.3       1 <1>        -0.049616 
      7 C           3.144417    0.591010   -0.000131 C.3       1 <1>        -0.034761 
      8 C           1.898019   -0.261452   -0.000114 C.2       1 <1>        -0.087932 
      9 C           0.674889    0.283987   -0.000118 C.2       1 <1>        -0.087932 
     10 C          -0.574000   -0.564816   -0.000139 C.3       1 <1>        -0.034761 
     11 C          -1.862547    0.301081    0.000095 C.3       1 <1>        -0.049616 
     12 C          -3.140693   -0.581287   -0.000052 C.3       1 <1>        -0.052779 
     13 C          -4.427110    0.289265    0.000156 C.3       1 <1>        -0.053048 
     14 C          -5.706163   -0.591865   -0.000058 C.3       1 <1>        -0.053057 
     15 C          -6.992705    0.278515    0.000145 C.3       1 <1>        -0.053065 
     16 C          -8.271260   -0.603415   -0.000084 C.3       1 <1>        -0.053306 
     17 C          -9.558372    0.265575    0.000126 C.3       1 <1>        -0.055911 
     18 C         -10.833846   -0.616833   -0.000095 C.3       1 <1>        -0.065276 
     19 O          10.782579    1.879986   -0.000215 O.2       1 <1>        -0.265177 
     20 O          11.966623   -0.021248    0.000079 O.3       1 <1>        -0.331267 
     21 H           9.593926   -0.829371    0.894001 H         1 <1>         0.036600 
     22 H           9.593930   -0.829735   -0.893413 H         1 <1>         0.036600 
     23 H           8.266842    1.312132   -0.893950 H         1 <1>         0.027004 
     24 H           8.266827    1.312495    0.893663 H         1 <1>         0.027004 
     25 H           7.014231   -0.875275    0.893726 H         1 <1>         0.026540 
     26 H           7.014255   -0.875637   -0.893146 H         1 <1>         0.026540 
     27 H           5.699703    1.273114   -0.893459 H         1 <1>         0.026538 
     28 H           5.699650    1.273450    0.893149 H         1 <1>         0.026538 
     29 H           4.444114   -0.911685    0.894240 H         1 <1>         0.026822 
     30 H           4.444192   -0.912015   -0.893821 H         1 <1>         0.026822 
     31 H           3.130263    1.234865   -0.894312 H         1 <1>         0.030732 
     32 H           3.130137    1.235145    0.893851 H         1 <1>         0.030732 
     33 H           1.990440   -1.348536   -0.000112 H         1 <1>         0.056896 
     34 H           0.584046    1.371240   -0.000122 H         1 <1>         0.056896 
     35 H          -0.563332   -1.208621   -0.894376 H         1 <1>         0.030732 
     36 H          -0.563198   -1.208929    0.893879 H         1 <1>         0.030732 
     37 H          -1.863557    0.946349    0.894293 H         1 <1>         0.026822 
     38 H          -1.863634    0.946719   -0.893823 H         1 <1>         0.026822 
     39 H          -3.137541   -1.227109   -0.893561 H         1 <1>         0.026538 
     40 H          -3.137496   -1.227486    0.893203 H         1 <1>         0.026538 
     41 H          -4.430010    0.935192    0.893632 H         1 <1>         0.026529 
     42 H          -4.430013    0.935614   -0.892996 H         1 <1>         0.026529 
     43 H          -5.703346   -1.237727   -0.893535 H         1 <1>         0.026528 
     44 H          -5.703351   -1.238162    0.893120 H         1 <1>         0.026528 
     45 H          -6.995750    0.924408    0.893633 H         1 <1>         0.026528 
     46 H          -6.995737    0.924845   -0.893012 H         1 <1>         0.026528 
     47 H          -8.268804   -1.249232   -0.893615 H         1 <1>         0.026520 
     48 H          -8.268815   -1.249680    0.893135 H         1 <1>         0.026520 
     49 H          -9.567434    0.911787    0.893794 H         1 <1>         0.026265 
     50 H          -9.567428    0.912224   -0.893219 H         1 <1>         0.026265 
     51 H         -11.734248    0.017813    0.000062 H         1 <1>         0.022978 
     52 H         -10.857505   -1.257703   -0.895260 H         1 <1>         0.022978 
     53 H         -10.857512   -1.258141    0.894759 H         1 <1>         0.022978 
     54 H          12.720294    0.558886   -0.000038 H         1 <1>         0.220208 
@<TRIPOS>BOND
     1    1    2 1    
     2    1   19 2    
     3    1   20 1    
     4    2    3 1    
     5    2   21 1    
     6    2   22 1    
     7    3    4 1    
     8    3   23 1    
     9    3   24 1    
    10    4    5 1    
    11    4   25 1    
    12    4   26 1    
    13    5    6 1    
    14    5   27 1    
    15    5   28 1    
    16    6    7 1    
    17    6   29 1    
    18    6   30 1    
    19    7    8 1    
    20    7   31 1    
    21    7   32 1    
    22    8    9 2    
    23    8   33 1    
    24    9   10 1    
    25    9   34 1    
    26   10   11 1    
    27   10   35 1    
    28   10   36 1    
    29   11   12 1    
    30   11   37 1    
    31   11   38 1    
    32   12   13 1    
    33   12   39 1    
    34   12   40 1    
    35   13   14 1    
    36   13   41 1    
    37   13   42 1    
    38   14   15 1    
    39   14   43 1    
    40   14   44 1    
    41   15   16 1    
    42   15   45 1    
    43   15   46 1    
    44   16   17 1    
    45   16   47 1    
    46   16   48 1    
    47   17   18 1    
    48   17   49 1    
    49   17   50 1    
    50   18   51 1    
    51   18   52 1    
    52   18   53 1    
    53   20   54 1    
@<TRIPOS>SUBSTRUCTURE
     1 ****        1 TEMP              0 ****  ****    0 ROOT 
@<TRIPOS>NORMAL
@<TRIPOS>FF_PBC
FORCE_FIELD_SETUP_FEATURE Force Field Setup information
v1.0  0 0.000000 0.000000 0.000000 0.000000 0.000000 0.000000 NONE 0 0 0 0 1 0 0 0 0 0 0 0 0
