@<TRIPOS>MOLECULE
MOL000417
   33    35     1     1     0
SMALL
GASTEIGER


@<TRIPOS>ATOM
      1 C          -0.497479   -0.464691   -0.095896 C.2       1 <1>         0.052645 
      2 C           1.015777   -0.401819   -0.073247 C.ar      1 <1>        -0.009704 
      3 C          -1.268613    0.713779    0.334629 C.2       1 <1>         0.198093 
      4 C          -1.114739   -1.584172   -0.508353 C.2       1 <1>         0.058254 
      5 C           1.818412   -1.549117    0.417942 C.ar      1 <1>        -0.021502 
      6 C           1.698175    0.769306   -0.528930 C.ar      1 <1>        -0.051251 
      7 C          -2.768054    0.640017    0.221321 C.ar      1 <1>         0.052904 
      8 O          -0.727858    1.714524    0.776417 O.2       1 <1>        -0.286478 
      9 O          -2.452771   -1.703128   -0.566572 O.3       1 <1>        -0.315353 
     10 C           3.210993   -1.492269    0.432908 C.ar      1 <1>         0.103018 
     11 C           3.178547    0.830655   -0.504251 C.ar      1 <1>        -0.028580 
     12 C          -3.312428   -0.646850   -0.253722 C.ar      1 <1>         0.095569 
     13 C          -3.624093    1.711472    0.540431 C.ar      1 <1>        -0.045981 
     14 C           3.924377   -0.274581   -0.030854 C.ar      1 <1>         0.105439 
     15 O           3.933414   -2.594804    0.893982 O.3       1 <1>        -0.357256 
     16 C          -4.696680   -0.808282   -0.392130 C.ar      1 <1>        -0.000723 
     17 C          -5.088022    1.535610    0.387027 C.ar      1 <1>        -0.031105 
     18 O           5.325948   -0.264361    0.018808 O.3       1 <1>        -0.345349 
     19 C          -5.614961    0.314696   -0.067333 C.ar      1 <1>         0.075081 
     20 C           6.072307    0.963430   -0.022061 C.3       1 <1>         0.043135 
     21 O          -6.997022    0.180118   -0.206981 O.3       1 <1>        -0.359749 
     22 H          -0.546283   -2.456498   -0.827011 H         1 <1>         0.089749 
     23 H           1.328904   -2.446959    0.777177 H         1 <1>         0.065014 
     24 H           1.138030    1.619560   -0.902639 H         1 <1>         0.062445 
     25 H           3.662650    1.733080   -0.854575 H         1 <1>         0.064429 
     26 H          -3.219225    2.654941    0.892725 H         1 <1>         0.062621 
     27 H           4.870451   -2.429232    0.853882 H         1 <1>         0.217422 
     28 H          -5.087093   -1.759166   -0.738086 H         1 <1>         0.066945 
     29 H          -5.758978    2.353573    0.624347 H         1 <1>         0.064341 
     30 H           7.128681    0.712165    0.155230 H         1 <1>         0.052871 
     31 H           5.737187    1.652275    0.769820 H         1 <1>         0.052871 
     32 H           5.998152    1.452000   -1.005271 H         1 <1>         0.052871 
     33 H          -7.268107   -0.675769   -0.519133 H         1 <1>         0.217315 
@<TRIPOS>BOND
     1    1    2 1    
     2    1    3 1    
     3    1    4 2    
     4    2    5 1    
     5    2    6 2    
     6    3    7 1    
     7    3    8 2    
     8    4    9 1    
     9    4   22 1    
    10    5   10 2    
    11    5   23 1    
    12    6   11 1    
    13    6   24 1    
    14    7   12 1    
    15    7   13 2    
    16    9   12 1    
    17   10   14 1    
    18   10   15 1    
    19   11   14 2    
    20   11   25 1    
    21   12   16 2    
    22   13   17 1    
    23   13   26 1    
    24   14   18 1    
    25   15   27 1    
    26   16   19 1    
    27   16   28 1    
    28   17   19 2    
    29   17   29 1    
    30   18   20 1    
    31   19   21 1    
    32   20   30 1    
    33   20   31 1    
    34   20   32 1    
    35   21   33 1    
@<TRIPOS>SUBSTRUCTURE
     1 ****        1 TEMP              0 ****  ****    0 ROOT 
@<TRIPOS>NORMAL
@<TRIPOS>FF_PBC
FORCE_FIELD_SETUP_FEATURE Force Field Setup information
v1.0  0 0.000000 0.000000 0.000000 0.000000 0.000000 0.000000 NONE 0 0 0 0 1 0 0 0 0 0 0 0 0
