@<TRIPOS>MOLECULE
MOL007994
   82    86     1     1     0
SMALL
GASTEIGER


@<TRIPOS>ATOM
      1 O          -6.007792   -1.918477   -0.716821 O.3       1 <1>        -0.391248 
      2 C          -5.007197   -2.930959   -0.925821 C.3       1 <1>         0.060637 
      3 C          -4.165151   -3.218042    0.366316 C.3       1 <1>        -0.005589 
      4 C          -2.782079   -2.440237    0.356347 C.3       1 <1>        -0.027836 
      5 C          -2.722214   -1.061825   -0.409873 C.3       1 <1>        -0.024959 
      6 C          -1.192911   -0.631762   -0.484480 C.3       1 <1>        -0.025736 
      7 C          -0.407389   -0.523709    0.870444 C.3       1 <1>        -0.019371 
      8 C          -0.631501   -1.852593    1.672354 C.3       1 <1>        -0.046268 
      9 C          -2.107090   -2.334017    1.762614 C.3       1 <1>        -0.048609 
     10 C          -4.084418   -2.579750   -2.115024 C.3       1 <1>        -0.025831 
     11 C          -3.253224   -1.281313   -1.877937 C.3       1 <1>        -0.044720 
     12 C          -0.815444    0.573759   -1.417608 C.3       1 <1>        -0.030613 
     13 C           0.357031    1.435976   -0.984602 C.2       1 <1>        -0.083553 
     14 C           1.259210    1.099087   -0.028532 C.2       1 <1>        -0.060466 
     15 C           1.137249   -0.310485    0.531749 C.3       1 <1>        -0.005012 
     16 C           2.046262   -0.500131    1.797912 C.3       1 <1>        -0.042412 
     17 C           3.530789   -0.070449    1.609670 C.3       1 <1>        -0.036888 
     18 C           3.708168    1.302977    0.857867 C.3       1 <1>         0.064809 
     19 C           4.518804    1.146134   -0.486717 C.3       1 <1>        -0.037122 
     20 C           3.924934    1.961908   -1.667468 C.3       1 <1>        -0.044519 
     21 C           3.630917    3.428538   -1.260612 C.3       1 <1>        -0.008285 
     22 C           2.592245    3.434833   -0.081854 C.3       1 <1>         0.067802 
     23 C           2.337772    2.012820    0.561778 C.3       1 <1>         0.021775 
     24 C          -3.884062   -4.766049    0.417699 C.3       1 <1>        -0.057190 
     25 C          -5.029050   -2.908488    1.635254 C.3       1 <1>        -0.057190 
     26 C          -3.646641    0.010177    0.262108 C.3       1 <1>        -0.059009 
     27 C          -0.934850    0.695835    1.717106 C.3       1 <1>        -0.058491 
     28 C           1.701679   -1.267449   -0.586777 C.3       1 <1>        -0.055322 
     29 C           4.515953    2.138681    1.849000 C.2       1 <1>         0.266468 
     30 O           4.062113    3.074032    2.484022 O.2       1 <1>        -0.264535 
     31 C           3.070443    4.187114   -2.504881 C.3       1 <1>        -0.057442 
     32 C           4.966098    4.144548   -0.861884 C.3       1 <1>        -0.057442 
     33 O           1.376758    4.142426   -0.425663 O.3       1 <1>        -0.390638 
     34 O           5.790543    1.749509    2.027167 O.3       1 <1>        -0.330835 
     35 H          -6.538790   -1.733088   -1.482400 H         1 <1>         0.209800 
     36 H          -5.580271   -3.833580   -1.196554 H         1 <1>         0.059852 
     37 H          -2.117449   -3.108413   -0.212973 H         1 <1>         0.031210 
     38 H          -0.751548   -1.505625   -0.982530 H         1 <1>         0.031460 
     39 H          -0.251463   -1.739193    2.699327 H         1 <1>         0.027096 
     40 H          -0.080007   -2.678352    1.208320 H         1 <1>         0.027096 
     41 H          -2.074430   -3.324862    2.243613 H         1 <1>         0.026846 
     42 H          -2.682408   -1.684694    2.435437 H         1 <1>         0.026846 
     43 H          -4.691125   -2.463421   -3.028328 H         1 <1>         0.029037 
     44 H          -3.403545   -3.429746   -2.276844 H         1 <1>         0.029037 
     45 H          -3.860581   -0.415049   -2.194544 H         1 <1>         0.027149 
     46 H          -2.431154   -1.339411   -2.611845 H         1 <1>         0.027149 
     47 H          -0.606347    0.241326   -2.444315 H         1 <1>         0.031042 
     48 H          -1.675268    1.249700   -1.483459 H         1 <1>         0.031042 
     49 H           0.410615    2.381979   -1.505071 H         1 <1>         0.057199 
     50 H           2.052046   -1.563254    2.090757 H         1 <1>         0.027403 
     51 H           1.657393    0.063469    2.657647 H         1 <1>         0.027403 
     52 H           4.112696   -0.878109    1.135805 H         1 <1>         0.027587 
     53 H           3.947458   -0.036504    2.633158 H         1 <1>         0.027587 
     54 H           5.576603    1.426083   -0.365966 H         1 <1>         0.027579 
     55 H           4.578066    0.108578   -0.855826 H         1 <1>         0.027579 
     56 H           2.991661    1.487484   -2.009842 H         1 <1>         0.027152 
     57 H           4.625099    1.931087   -2.515048 H         1 <1>         0.027152 
     58 H           3.012721    4.122307    0.671849 H         1 <1>         0.060468 
     59 H           1.888532    2.245759    1.537156 H         1 <1>         0.038132 
     60 H          -3.247502   -5.047709    1.271400 H         1 <1>         0.023587 
     61 H          -4.823309   -5.339074    0.513283 H         1 <1>         0.023587 
     62 H          -3.380735   -5.109363   -0.501525 H         1 <1>         0.023587 
     63 H          -4.557005   -3.299311    2.553941 H         1 <1>         0.023587 
     64 H          -5.192337   -1.829563    1.771562 H         1 <1>         0.023587 
     65 H          -6.018520   -3.389854    1.546556 H         1 <1>         0.023587 
     66 H          -3.496473    1.007365   -0.164311 H         1 <1>         0.023525 
     67 H          -3.534342    0.089498    1.343125 H         1 <1>         0.023525 
     68 H          -4.698107   -0.206046    0.093310 H         1 <1>         0.023525 
     69 H          -1.414309    1.451140    1.080422 H         1 <1>         0.023542 
     70 H          -1.644040    0.389782    2.493197 H         1 <1>         0.023542 
     71 H          -0.151500    1.233283    2.259899 H         1 <1>         0.023542 
     72 H           1.447287   -2.321968   -0.407847 H         1 <1>         0.023829 
     73 H           2.792802   -1.240988   -0.652311 H         1 <1>         0.023829 
     74 H           1.365540   -0.995536   -1.600369 H         1 <1>         0.023829 
     75 H           2.830008    5.231087   -2.246025 H         1 <1>         0.023579 
     76 H           3.810129    4.202552   -3.322501 H         1 <1>         0.023579 
     77 H           2.152846    3.703487   -2.880256 H         1 <1>         0.023579 
     78 H           4.786502    5.222478   -0.690732 H         1 <1>         0.023579 
     79 H           5.411221    3.740031    0.055948 H         1 <1>         0.023579 
     80 H           5.718040    4.049793   -1.667711 H         1 <1>         0.023579 
     81 H           0.748716    4.206080    0.290149 H         1 <1>         0.209825 
     82 H           6.235824    2.300522    2.655057 H         1 <1>         0.220226 
@<TRIPOS>BOND
     1    1    2 1    
     2    1   35 1    
     3    2    3 1    
     4    2   10 1    
     5    2   36 1    
     6    3    4 1    
     7    3   24 1    
     8    3   25 1    
     9    4    5 1    
    10    4    9 1    
    11    4   37 1    
    12    5    6 1    
    13    5   11 1    
    14    5   26 1    
    15    6    7 1    
    16    6   12 1    
    17    6   38 1    
    18    7    8 1    
    19    7   15 1    
    20    7   27 1    
    21    8    9 1    
    22    8   39 1    
    23    8   40 1    
    24    9   41 1    
    25    9   42 1    
    26   10   11 1    
    27   10   43 1    
    28   10   44 1    
    29   11   45 1    
    30   11   46 1    
    31   12   13 1    
    32   12   47 1    
    33   12   48 1    
    34   13   14 2    
    35   13   49 1    
    36   14   15 1    
    37   14   23 1    
    38   15   16 1    
    39   15   28 1    
    40   16   17 1    
    41   16   50 1    
    42   16   51 1    
    43   17   18 1    
    44   17   52 1    
    45   17   53 1    
    46   18   19 1    
    47   18   23 1    
    48   18   29 1    
    49   19   20 1    
    50   19   54 1    
    51   19   55 1    
    52   20   21 1    
    53   20   56 1    
    54   20   57 1    
    55   21   22 1    
    56   21   31 1    
    57   21   32 1    
    58   22   23 1    
    59   22   33 1    
    60   22   58 1    
    61   23   59 1    
    62   24   60 1    
    63   24   61 1    
    64   24   62 1    
    65   25   63 1    
    66   25   64 1    
    67   25   65 1    
    68   26   66 1    
    69   26   67 1    
    70   26   68 1    
    71   27   69 1    
    72   27   70 1    
    73   27   71 1    
    74   28   72 1    
    75   28   73 1    
    76   28   74 1    
    77   29   30 2    
    78   29   34 1    
    79   31   75 1    
    80   31   76 1    
    81   31   77 1    
    82   32   78 1    
    83   32   79 1    
    84   32   80 1    
    85   33   81 1    
    86   34   82 1    
@<TRIPOS>SUBSTRUCTURE
     1 ****        1 TEMP              0 ****  ****    0 ROOT 
@<TRIPOS>NORMAL
@<TRIPOS>FF_PBC
FORCE_FIELD_SETUP_FEATURE Force Field Setup information
v1.0  0 0.000000 0.000000 0.000000 0.000000 0.000000 0.000000 NONE 0 0 0 0 1 0 0 0 0 0 0 0 0
