@<TRIPOS>MOLECULE
MOL005276
   41    40     1     1     0
SMALL
GASTEIGER


@<TRIPOS>ATOM
      1 C          -0.732747   -3.805293    0.768993 C.3       1 <1>        -0.062422 
      2 C          -0.965696   -2.750274    1.888410 C.3       1 <1>        -0.044135 
      3 C          -1.924933   -1.578092    1.480738 C.3       1 <1>        -0.041544 
      4 C          -1.469099   -0.786763    0.212929 C.3       1 <1>        -0.050225 
      5 C          -0.028063   -0.207848    0.301911 C.3       1 <1>        -0.052798 
      6 C           0.285561    0.725603   -0.901314 C.3       1 <1>        -0.052807 
      7 C           1.720287    1.316596   -0.802115 C.3       1 <1>        -0.050468 
      8 C           2.152158    2.135396   -2.057389 C.3       1 <1>        -0.044128 
      9 C           1.190975    3.309018   -2.428334 C.3       1 <1>        -0.053312 
     10 C           0.964516    4.353999   -1.302236 C.3       1 <1>        -0.065034 
     11 C           3.617767    2.628629   -1.883545 C.3       1 <1>        -0.062423 
     12 C          -3.404543   -2.026535    1.290282 C.3       1 <1>        -0.062181 
     13 C          -1.428254   -3.471065    3.188231 C.3       1 <1>        -0.062422 
     14 H          -0.294955   -3.352887   -0.131990 H         1 <1>         0.023242 
     15 H          -0.031610   -4.577223    1.123010 H         1 <1>         0.023242 
     16 H          -1.671996   -4.304615    0.491897 H         1 <1>         0.023242 
     17 H           0.013960   -2.306916    2.136745 H         1 <1>         0.029806 
     18 H          -1.922138   -0.858472    2.319185 H         1 <1>         0.030062 
     19 H          -2.157737    0.064298    0.080305 H         1 <1>         0.026793 
     20 H          -1.559418   -1.417382   -0.684973 H         1 <1>         0.026793 
     21 H           0.709992   -1.024659    0.300215 H         1 <1>         0.026537 
     22 H           0.080308    0.360491    1.240244 H         1 <1>         0.026537 
     23 H          -0.454107    1.540905   -0.909207 H         1 <1>         0.026537 
     24 H           0.186822    0.155460   -1.839619 H         1 <1>         0.026537 
     25 H           2.427381    0.478500   -0.685427 H         1 <1>         0.026785 
     26 H           1.799422    1.939012    0.102722 H         1 <1>         0.026785 
     27 H           2.150841    1.443983   -2.919829 H         1 <1>         0.029804 
     28 H           1.602553    3.835943   -3.305556 H         1 <1>         0.026521 
     29 H           0.212703    2.905010   -2.735025 H         1 <1>         0.026521 
     30 H           0.292632    5.147065   -1.667480 H         1 <1>         0.022986 
     31 H           0.495132    3.897275   -0.418925 H         1 <1>         0.022986 
     32 H           1.910007    4.826059   -0.998624 H         1 <1>         0.022986 
     33 H           3.941564    3.209146   -2.761278 H         1 <1>         0.023242 
     34 H           4.299121    1.770133   -1.774614 H         1 <1>         0.023242 
     35 H           3.722450    3.258562   -0.988327 H         1 <1>         0.023242 
     36 H          -4.036964   -1.160363    1.040207 H         1 <1>         0.023250 
     37 H          -3.817631   -2.469096    2.207831 H         1 <1>         0.023250 
     38 H          -3.495503   -2.755785    0.472839 H         1 <1>         0.023250 
     39 H          -1.661731   -2.740060    3.977864 H         1 <1>         0.023242 
     40 H          -0.630759   -4.132842    3.562298 H         1 <1>         0.023242 
     41 H          -2.316144   -4.094260    3.006854 H         1 <1>         0.023242 
@<TRIPOS>BOND
     1    1    2 1    
     2    1   14 1    
     3    1   15 1    
     4    1   16 1    
     5    2    3 1    
     6    2   13 1    
     7    2   17 1    
     8    3    4 1    
     9    3   12 1    
    10    3   18 1    
    11    4    5 1    
    12    4   19 1    
    13    4   20 1    
    14    5    6 1    
    15    5   21 1    
    16    5   22 1    
    17    6    7 1    
    18    6   23 1    
    19    6   24 1    
    20    7    8 1    
    21    7   25 1    
    22    7   26 1    
    23    8    9 1    
    24    8   11 1    
    25    8   27 1    
    26    9   10 1    
    27    9   28 1    
    28    9   29 1    
    29   10   30 1    
    30   10   31 1    
    31   10   32 1    
    32   11   33 1    
    33   11   34 1    
    34   11   35 1    
    35   12   36 1    
    36   12   37 1    
    37   12   38 1    
    38   13   39 1    
    39   13   40 1    
    40   13   41 1    
@<TRIPOS>SUBSTRUCTURE
     1 ****        1 TEMP              0 ****  ****    0 ROOT 
@<TRIPOS>NORMAL
@<TRIPOS>FF_PBC
FORCE_FIELD_SETUP_FEATURE Force Field Setup information
v1.0  0 0.000000 0.000000 0.000000 0.000000 0.000000 0.000000 NONE 0 0 0 0 1 0 0 0 0 0 0 0 0
