@<TRIPOS>MOLECULE
MOL001335
   16    16     1     1     0
SMALL
GASTEIGER


@<TRIPOS>ATOM
      1 C           0.417992   -0.171066   -2.341926 C.ar      1 <1>        -0.061740 
      2 C           0.173332    1.172230   -1.765670 C.ar      1 <1>        -0.061430 
      3 C          -0.035349    1.320287   -0.379056 C.ar      1 <1>        -0.056397 
      4 C          -0.011821    0.132624    0.511598 C.ar      1 <1>        -0.022186 
      5 C           0.223614   -1.147501   -0.046392 C.ar      1 <1>        -0.056397 
      6 C           0.442684   -1.300735   -1.504213 C.ar      1 <1>        -0.061430 
      7 C          -0.238302    0.276410    2.020193 C.3       1 <1>         0.069233 
      8 O          -1.130919   -0.762301    2.462429 O.3       1 <1>        -0.390416 
      9 H           0.577664   -0.280340   -3.409859 H         1 <1>         0.061758 
     10 H           0.155511    2.041882   -2.414939 H         1 <1>         0.061767 
     11 H          -0.212798    2.307816    0.033687 H         1 <1>         0.062101 
     12 H           0.244272   -2.023552    0.593415 H         1 <1>         0.062101 
     13 H           0.621664   -2.286002   -1.922716 H         1 <1>         0.061767 
     14 H           0.741757    0.190216    2.517515 H         1 <1>         0.060710 
     15 H          -0.668661    1.266006    2.246362 H         1 <1>         0.060710 
     16 H          -1.300441   -0.735974    3.399372 H         1 <1>         0.209847 
@<TRIPOS>BOND
     1    1    2 1    
     2    1    6 2    
     3    1    9 1    
     4    2    3 2    
     5    2   10 1    
     6    3    4 1    
     7    3   11 1    
     8    4    5 2    
     9    4    7 1    
    10    5    6 1    
    11    5   12 1    
    12    6   13 1    
    13    7    8 1    
    14    7   14 1    
    15    7   15 1    
    16    8   16 1    
@<TRIPOS>SUBSTRUCTURE
     1 ****        1 TEMP              0 ****  ****    0 ROOT 
@<TRIPOS>NORMAL
@<TRIPOS>FF_PBC
FORCE_FIELD_SETUP_FEATURE Force Field Setup information
v1.0  0 0.000000 0.000000 0.000000 0.000000 0.000000 0.000000 NONE 0 0 0 0 1 0 0 0 0 0 0 0 0
