@<TRIPOS>MOLECULE
MOL013430
   35    38     1     1     0
SMALL
GASTEIGER


@<TRIPOS>ATOM
      1 C          -1.044630   -0.171710   -0.286758 C.ar      1 <1>         0.213159 
      2 C          -2.246651   -0.832208    0.098649 C.ar      1 <1>         0.132773 
      3 C          -0.773068    0.007970   -1.737829 C.ar      1 <1>         0.394928 
      4 O          -0.163574    0.284025    0.704763 O.3       1 <1>        -0.332075 
      5 C          -3.194988   -1.329448   -0.930515 C.ar      1 <1>         0.009489 
      6 O          -2.526307   -1.009460    1.455945 O.3       1 <1>        -0.270853 
      7 C          -1.663943   -0.456111   -2.662026 C.ar      1 <1>         0.090557 
      8 O           0.336038    0.624128   -2.332105 O.2       1 <1>        -0.209540 
      9 C           1.113665    0.862185    0.381633 C.3       1 <1>         0.083528 
     10 C          -2.921326   -1.149698   -2.310313 C.ar      1 <1>        -0.035520 
     11 C          -4.445984   -2.026320   -0.455342 C.2       1 <1>        -0.046335 
     12 C          -3.649520   -1.630151    1.840635 C.2       1 <1>         0.291658 
     13 C          -1.105383   -0.121104   -3.977335 C.ar      1 <1>         0.050798 
     14 C           0.075974    0.517290   -3.702908 C.ar      1 <1>         0.322759 
     15 C           1.822275    1.224992    1.709470 C.3       1 <1>         0.111500 
     16 C          -4.625788   -2.149996    0.862588 C.2       1 <1>         0.010954 
     17 O          -3.867140   -1.767328    3.032792 O.2       1 <1>        -0.259478 
     18 C           3.409345    1.362192    1.776299 C.3       1 <1>         0.092702 
     19 O           2.540504    2.431001    1.545405 O.3       1 <1>        -0.362941 
     20 C           4.013395    1.241926    3.193643 C.3       1 <1>        -0.033540 
     21 C           4.240312    0.887217    0.561856 C.3       1 <1>        -0.033540 
     22 H           1.712549    0.125067   -0.173205 H         1 <1>         0.059181 
     23 H           0.980259    1.777526   -0.216675 H         1 <1>         0.059181 
     24 H          -3.601711   -1.504539   -3.077542 H         1 <1>         0.063314 
     25 H          -5.175914   -2.415005   -1.166671 H         1 <1>         0.062607 
     26 H          -1.536003   -0.333405   -4.950415 H         1 <1>         0.071340 
     27 H           0.745240    0.902298   -4.468496 H         1 <1>         0.176011 
     28 H           1.209557    1.346916    2.615856 H         1 <1>         0.064807 
     29 H          -5.516633   -2.648241    1.245321 H         1 <1>         0.067748 
     30 H           4.969223    1.785421    3.227622 H         1 <1>         0.025805 
     31 H           4.192741    0.180983    3.423038 H         1 <1>         0.025805 
     32 H           3.340973    1.666447    3.954544 H         1 <1>         0.025805 
     33 H           3.847477    1.298368   -0.379844 H         1 <1>         0.025805 
     34 H           5.278754    1.230519    0.678920 H         1 <1>         0.025805 
     35 H           4.230385   -0.211748    0.518598 H         1 <1>         0.025805 
@<TRIPOS>BOND
     1    1    2 2    
     2    1    3 1    
     3    1    4 1    
     4    2    5 1    
     5    2    6 1    
     6    3    7 2    
     7    3    8 1    
     8    4    9 1    
     9    5   10 2    
    10    5   11 1    
    11    6   12 1    
    12    7   10 1    
    13    7   13 1    
    14    8   14 1    
    15    9   15 1    
    16    9   22 1    
    17    9   23 1    
    18   10   24 1    
    19   11   16 2    
    20   11   25 1    
    21   12   16 1    
    22   12   17 2    
    23   13   14 2    
    24   13   26 1    
    25   14   27 1    
    26   15   18 1    
    27   15   19 1    
    28   15   28 1    
    29   16   29 1    
    30   18   19 1    
    31   18   20 1    
    32   18   21 1    
    33   20   30 1    
    34   20   31 1    
    35   20   32 1    
    36   21   33 1    
    37   21   34 1    
    38   21   35 1    
@<TRIPOS>SUBSTRUCTURE
     1 ****        1 TEMP              0 ****  ****    0 ROOT 
@<TRIPOS>NORMAL
@<TRIPOS>FF_PBC
FORCE_FIELD_SETUP_FEATURE Force Field Setup information
v1.0  0 0.000000 0.000000 0.000000 0.000000 0.000000 0.000000 NONE 0 0 0 0 1 0 0 0 0 0 0 0 0
