@<TRIPOS>MOLECULE
MOL008051
   22    22     1     1     0
SMALL
GASTEIGER


@<TRIPOS>ATOM
      1 C           0.533054   -0.394366   -0.019540 C.1       1 <1>        -0.052473 
      2 C          -0.643729   -0.142480   -0.019347 C.1       1 <1>        -0.009565 
      3 C          -1.992621    0.144816   -0.019277 C.1       1 <1>        -0.014502 
      4 C          -3.169904    0.395037   -0.019315 C.1       1 <1>        -0.088678 
      5 C          -4.597074    0.699282   -0.019330 C.3       1 <1>         0.007244 
      6 C          -4.819839    2.227876    0.089966 C.3       1 <1>        -0.054317 
      7 C           2.932727    0.404647   -0.020128 C.ar      1 <1>        -0.046299 
      8 C           4.765687   -1.296744   -0.020653 C.ar      1 <1>        -0.061686 
      9 C           3.825932   -2.341929   -0.020464 C.ar      1 <1>        -0.060603 
     10 H          -5.063858    0.181543    0.833546 H         1 <1>         0.039495 
     11 C           1.941267   -0.697322   -0.019898 C.ar      1 <1>         0.025879 
     12 H          -5.035736    0.313401   -0.953146 H         1 <1>         0.039495 
     13 H          -5.897809    2.454020    0.089904 H         1 <1>         0.023873 
     14 H          -4.350734    2.743974   -0.762676 H         1 <1>         0.023873 
     15 C           4.307227    0.113114   -0.020502 C.ar      1 <1>        -0.060603 
     16 H          -4.378476    2.612229    1.023179 H         1 <1>         0.023873 
     17 H           2.593654    1.435479   -0.020017 H         1 <1>         0.062973 
     18 H           5.828070   -1.519033   -0.020908 H         1 <1>         0.061759 
     19 H           4.158786   -3.375065   -0.020604 H         1 <1>         0.061794 
     20 C           2.375818   -2.034090   -0.020075 C.ar      1 <1>        -0.046299 
     21 H           5.035500    0.917961   -0.020690 H         1 <1>         0.061794 
     22 H           1.652058   -2.842553   -0.019929 H         1 <1>         0.062973 
@<TRIPOS>BOND
     1    1    2 3    
     2   11    1 1    
     3    2    3 1    
     4    3    4 3    
     5    4    5 1    
     6    5    6 1    
     7    5   10 1    
     8    5   12 1    
     9    6   13 1    
    10    6   14 1    
    11    6   16 1    
    12    7   11 1    
    13   15    7 2    
    14    7   17 1    
    15    8    9 2    
    16    8   15 1    
    17    8   18 1    
    18    9   19 1    
    19    9   20 1    
    20   11   20 2    
    21   15   21 1    
    22   20   22 1    
@<TRIPOS>SUBSTRUCTURE
     1 ****        8 TEMP              0 ****  ****    0 ROOT 
@<TRIPOS>NORMAL
@<TRIPOS>FF_PBC
FORCE_FIELD_SETUP_FEATURE Force Field Setup information
v1.0  0 0.000000 0.000000 0.000000 0.000000 0.000000 0.000000 NONE 0 0 0 0 1 0 0 0 0 0 0 0 0
