@<TRIPOS>MOLECULE
MOL004830
   22    21     1     1     0
SMALL
GASTEIGER


@<TRIPOS>ATOM
      1 C           0.551264   -0.101339    0.000192 C.3       1 <1>        -0.034477 
      2 C          -0.717791   -0.920613    0.000092 C.2       1 <1>        -0.084024 
      3 C           0.260132    1.423780   -0.000077 C.3       1 <1>        -0.049856 
      4 C          -0.690986   -2.259795    0.000030 C.2       1 <1>        -0.066237 
      5 C           1.573093    2.253295    0.000088 C.3       1 <1>        -0.055633 
      6 C          -1.913442   -3.090067   -0.000055 C.2       1 <1>        -0.069161 
      7 C           1.276946    3.775781   -0.000151 C.3       1 <1>        -0.065267 
      8 C          -1.880770   -4.428167   -0.000060 C.2       1 <1>        -0.098701 
      9 H           1.139883   -0.362325    0.894495 H         1 <1>         0.030741 
     10 H           1.140234   -0.362580   -0.893807 H         1 <1>         0.030741 
     11 H          -1.680545   -0.407903    0.000078 H         1 <1>         0.057203 
     12 H          -0.332640    1.678645   -0.894333 H         1 <1>         0.026813 
     13 H          -0.333006    1.678890    0.893867 H         1 <1>         0.026813 
     14 H           0.277674   -2.761284    0.000042 H         1 <1>         0.061430 
     15 H           2.168647    2.002273    0.893725 H         1 <1>         0.026274 
     16 H           2.169012    2.002056   -0.893246 H         1 <1>         0.026274 
     17 H          -2.886006   -2.595023   -0.000119 H         1 <1>         0.061171 
     18 H           2.219564    4.345746   -0.000019 H         1 <1>         0.022978 
     19 H           0.699440    4.054719   -0.895308 H         1 <1>         0.022978 
     20 H           0.699055    4.054928    0.894694 H         1 <1>         0.022978 
     21 H          -2.803359   -5.009399   -0.000124 H         1 <1>         0.053481 
     22 H          -0.936196   -4.971518   -0.000005 H         1 <1>         0.053481 
@<TRIPOS>BOND
     1    1    2 1    
     2    1    3 1    
     3    1    9 1    
     4    1   10 1    
     5    2    4 2    
     6    2   11 1    
     7    3    5 1    
     8    3   12 1    
     9    3   13 1    
    10    4    6 1    
    11    4   14 1    
    12    5    7 1    
    13    5   15 1    
    14    5   16 1    
    15    6    8 2    
    16    6   17 1    
    17    7   18 1    
    18    7   19 1    
    19    7   20 1    
    20    8   21 1    
    21    8   22 1    
@<TRIPOS>SUBSTRUCTURE
     1 ****        1 TEMP              0 ****  ****    0 ROOT 
@<TRIPOS>NORMAL
@<TRIPOS>FF_PBC
FORCE_FIELD_SETUP_FEATURE Force Field Setup information
v1.0  0 0.000000 0.000000 0.000000 0.000000 0.000000 0.000000 NONE 0 0 0 0 1 0 0 0 0 0 0 0 0
