@<TRIPOS>MOLECULE
MOL004080
   29    28     1     1     0
SMALL
GASTEIGER


@<TRIPOS>ATOM
      1 O          -0.109649   -1.248262    0.243796 O.3       1 <1>        -0.307430 
      2 O           2.436698   -0.144743   -0.416122 O.3       1 <1>        -0.312720 
      3 O          -1.662938    1.054640   -0.046395 O.3       1 <1>        -0.312720 
      4 O          -1.415710   -2.617736   -0.995330 O.2       1 <1>        -0.265272 
      5 O           3.423232    1.856519   -0.066787 O.2       1 <1>        -0.265282 
      6 O          -3.408832    1.850289   -1.235131 O.2       1 <1>        -0.265282 
      7 C           0.059985   -0.415889   -0.926746 C.3       1 <1>         0.115614 
      8 C           1.204691    0.582892   -0.612931 C.3       1 <1>         0.085986 
      9 C          -1.247223    0.365638   -1.243774 C.3       1 <1>         0.085986 
     10 C          -0.934500   -2.290440    0.078444 C.2       1 <1>         0.259435 
     11 C           3.488365    0.638586   -0.132898 C.2       1 <1>         0.259120 
     12 C          -2.800007    1.750338   -0.181426 C.2       1 <1>         0.259120 
     13 C          -1.238706   -3.053474    1.336233 C.3       1 <1>         0.021445 
     14 C           4.780888   -0.092328    0.100762 C.3       1 <1>         0.021435 
     15 C          -3.282532    2.413888    1.077608 C.3       1 <1>         0.021435 
     16 H           0.380395   -1.010917   -1.800511 H         1 <1>         0.064858 
     17 H           0.937739    1.147559    0.296369 H         1 <1>         0.059267 
     18 H           1.321518    1.287127   -1.453694 H         1 <1>         0.059267 
     19 H          -2.034575   -0.332216   -1.568963 H         1 <1>         0.059267 
     20 H          -1.063382    1.079390   -2.063703 H         1 <1>         0.059267 
     21 H          -1.850801   -3.941401    1.117315 H         1 <1>         0.033023 
     22 H          -0.299936   -3.373818    1.812098 H         1 <1>         0.033023 
     23 H          -1.790449   -2.400865    2.028959 H         1 <1>         0.033023 
     24 H           5.059977   -0.642939   -0.809334 H         1 <1>         0.033023 
     25 H           4.654442   -0.804319    0.929342 H         1 <1>         0.033023 
     26 H           5.586066    0.613233    0.354577 H         1 <1>         0.033023 
     27 H          -2.561562    3.185251    1.384220 H         1 <1>         0.033023 
     28 H          -3.368623    1.662451    1.876134 H         1 <1>         0.033023 
     29 H          -4.265671    2.881246    0.919089 H         1 <1>         0.033023 
@<TRIPOS>BOND
     1    7    1 1    
     2    1   10 1    
     3    8    2 1    
     4    2   11 1    
     5    9    3 1    
     6    3   12 1    
     7   10    4 2    
     8   11    5 2    
     9   12    6 2    
    10    7    8 1    
    11    7    9 1    
    12    7   16 1    
    13    8   17 1    
    14    8   18 1    
    15    9   19 1    
    16    9   20 1    
    17   10   13 1    
    18   11   14 1    
    19   12   15 1    
    20   13   21 1    
    21   13   22 1    
    22   13   23 1    
    23   14   24 1    
    24   14   25 1    
    25   14   26 1    
    26   15   27 1    
    27   15   28 1    
    28   15   29 1    
@<TRIPOS>SUBSTRUCTURE
     1 ****        1 TEMP              0 ****  ****    0 ROOT 
@<TRIPOS>NORMAL
@<TRIPOS>FF_PBC
FORCE_FIELD_SETUP_FEATURE Force Field Setup information
v1.0  0 0.000000 0.000000 0.000000 0.000000 0.000000 0.000000 NONE 0 0 0 0 1 0 0 0 0 0 0 0 0
