@<TRIPOS>MOLECULE
MOL003837
   19    20     1     1     0
SMALL
GASTEIGER


@<TRIPOS>ATOM
      1 C           1.447728   -1.520713   -0.158149 C.ar      1 <1>         0.102911 
      2 C           0.255088   -1.970440   -0.921828 C.ar      1 <1>         0.104706 
      3 C          -0.890947   -1.135520   -0.989579 C.ar      1 <1>         0.001823 
      4 C          -0.908837    0.178179   -0.307340 C.ar      1 <1>         0.096165 
      5 C           0.226706    0.601285    0.416371 C.ar      1 <1>         0.008357 
      6 C           1.428508   -0.262485    0.494207 C.ar      1 <1>        -0.019769 
      7 O          -2.052132    0.978518   -0.391795 O.3       1 <1>        -0.273708 
      8 C          -2.082055    2.169204    0.220535 C.2       1 <1>         0.291579 
      9 C          -0.928316    2.668536    0.991376 C.2       1 <1>         0.010953 
     10 C           0.187865    1.944343    1.103831 C.2       1 <1>        -0.046363 
     11 O          -3.088219    2.853443    0.136510 O.2       1 <1>        -0.259480 
     12 O           2.574865   -2.347998   -0.094087 O.3       1 <1>        -0.357260 
     13 O           0.279270   -3.213602   -1.564623 O.3       1 <1>        -0.357216 
     14 H          -1.770712   -1.445996   -1.541480 H         1 <1>         0.067029 
     15 H           2.291236    0.079124    1.055295 H         1 <1>         0.065074 
     16 H          -1.004183    3.644992    1.470111 H         1 <1>         0.067748 
     17 H           1.045610    2.306035    1.671885 H         1 <1>         0.062606 
     18 H           3.300578   -1.994152    0.407098 H         1 <1>         0.217422 
     19 H          -0.515453   -3.432553   -2.037536 H         1 <1>         0.217422 
@<TRIPOS>BOND
     1    1    2 1    
     2    1    6 2    
     3    1   12 1    
     4    2    3 2    
     5    2   13 1    
     6    3    4 1    
     7    3   14 1    
     8    4    5 2    
     9    4    7 1    
    10    5    6 1    
    11    5   10 1    
    12    6   15 1    
    13    7    8 1    
    14    8    9 1    
    15    8   11 2    
    16    9   10 2    
    17    9   16 1    
    18   10   17 1    
    19   12   18 1    
    20   13   19 1    
@<TRIPOS>SUBSTRUCTURE
     1 ****        1 TEMP              0 ****  ****    0 ROOT 
@<TRIPOS>NORMAL
@<TRIPOS>FF_PBC
FORCE_FIELD_SETUP_FEATURE Force Field Setup information
v1.0  0 0.000000 0.000000 0.000000 0.000000 0.000000 0.000000 NONE 0 0 0 0 1 0 0 0 0 0 0 0 0
