@<TRIPOS>MOLECULE
MOL004893
   81    85     1     1     0
SMALL
GASTEIGER


@<TRIPOS>ATOM
      1 C           2.532730   -1.952624   -3.914206 C.3       1 <1>         0.053721 
      2 C           3.667763   -0.935897   -4.236665 C.3       1 <1>        -0.038057 
      3 C           3.504278    0.384100   -3.431841 C.3       1 <1>        -0.046118 
      4 C           2.102530    1.082536   -3.549361 C.3       1 <1>        -0.025442 
      5 C           0.975396    0.035086   -3.310313 C.3       1 <1>        -0.012608 
      6 C           1.178741   -1.246136   -4.179769 C.3       1 <1>        -0.031522 
      7 C           1.894463    2.283600   -2.552673 C.3       1 <1>        -0.046277 
      8 C           0.973970    2.067855   -1.292923 C.3       1 <1>        -0.042869 
      9 C           0.997193    0.621120   -0.690861 C.3       1 <1>        -0.004332 
     10 C           0.403040   -0.132891   -1.898196 C.2       1 <1>        -0.056185 
     11 C           0.117861    0.354082    0.628335 C.3       1 <1>        -0.012656 
     12 C          -1.425222    0.239497    0.388445 C.3       1 <1>         0.033333 
     13 C          -1.553674   -0.906829   -0.585726 C.2       1 <1>         0.160199 
     14 C          -0.720127   -0.859954   -1.781454 C.2       1 <1>        -0.018839 
     15 C           0.272485    1.573720    1.606785 C.3       1 <1>        -0.045875 
     16 C          -0.370907    1.401862    3.009951 C.3       1 <1>        -0.048506 
     17 C          -1.551195    0.390847    3.032978 C.3       1 <1>        -0.025097 
     18 C          -2.362987    0.340495    1.683451 C.3       1 <1>        -0.018168 
     19 C          -2.297576    0.271951    4.420328 C.3       1 <1>         0.020283 
     20 C          -3.238371   -0.975553    4.359878 C.3       1 <1>         0.062974 
     21 C          -4.153302   -0.974148    3.102777 C.3       1 <1>        -0.025736 
     22 C          -3.314417   -0.893875    1.800995 C.3       1 <1>        -0.044327 
     23 O           1.492833   -3.073887   -2.033739 O.3       1 <1>        -0.330857 
     24 C           2.668822   -3.188274   -4.851344 C.3       1 <1>        -0.050480 
     25 C           2.611472   -2.522339   -2.510956 C.2       1 <1>         0.265560 
     26 O           3.642123   -2.498488   -1.853019 O.2       1 <1>        -0.264567 
     27 C          -3.229686    1.629097    1.500953 C.3       1 <1>        -0.058617 
     28 C           0.561984   -1.039624    1.229602 C.3       1 <1>        -0.058099 
     29 C           2.479985    0.350351   -0.248043 C.3       1 <1>        -0.055302 
     30 C           2.060076    1.697441   -4.995385 C.3       1 <1>        -0.059016 
     31 C          -1.257793   -0.002331    5.566349 C.3       1 <1>         0.052200 
     32 C          -3.108753    1.527706    4.875627 C.3       1 <1>        -0.054830 
     33 O          -4.046402   -1.014133    5.551233 O.3       1 <1>        -0.391162 
     34 O          -2.314460   -1.855662   -0.482004 O.2       1 <1>        -0.292347 
     35 O          -0.553755    1.202220    5.930356 O.3       1 <1>        -0.394374 
     36 H           4.641042   -1.392563   -3.990321 H         1 <1>         0.027550 
     37 H           3.697137   -0.733347   -5.317376 H         1 <1>         0.027550 
     38 H           4.303222    1.083769   -3.720782 H         1 <1>         0.027098 
     39 H           3.755573    0.103730   -2.418093 H         1 <1>         0.027098 
     40 H           0.098747    0.525147   -3.768560 H         1 <1>         0.035146 
     41 H           0.380181   -1.985075   -4.064335 H         1 <1>         0.028121 
     42 H           1.149838   -0.971701   -5.243548 H         1 <1>         0.028121 
     43 H           1.437112    3.142536   -3.074422 H         1 <1>         0.027096 
     44 H           2.889896    2.650948   -2.258101 H         1 <1>         0.027096 
     45 H          -0.066591    2.325604   -1.554881 H         1 <1>         0.027392 
     46 H           1.307111    2.815179   -0.553087 H         1 <1>         0.027392 
     47 H          -1.658953    1.085490   -0.273744 H         1 <1>         0.039170 
     48 H          -1.155533   -1.437532   -2.588519 H         1 <1>         0.065218 
     49 H           1.316582    1.894414    1.753828 H         1 <1>         0.027107 
     50 H          -0.226814    2.438089    1.141620 H         1 <1>         0.027107 
     51 H          -0.692343    2.389391    3.371266 H         1 <1>         0.026847 
     52 H           0.420417    1.050012    3.694792 H         1 <1>         0.026847 
     53 H          -1.046238   -0.570023    3.057815 H         1 <1>         0.031302 
     54 H          -2.617902   -1.892166    4.332170 H         1 <1>         0.059936 
     55 H          -4.714823   -1.922334    3.087305 H         1 <1>         0.029039 
     56 H          -4.909978   -0.182435    3.144857 H         1 <1>         0.029039 
     57 H          -4.010923   -0.914318    0.948088 H         1 <1>         0.027160 
     58 H          -2.718082   -1.821021    1.794185 H         1 <1>         0.027160 
     59 H           1.617301   -3.440915   -1.164812 H         1 <1>         0.220226 
     60 H           1.854730   -3.909177   -4.671304 H         1 <1>         0.023986 
     61 H           3.628580   -3.699679   -4.667032 H         1 <1>         0.023986 
     62 H           2.633632   -2.888367   -5.910284 H         1 <1>         0.023986 
     63 H          -3.749385    1.607410    0.529793 H         1 <1>         0.023535 
     64 H          -4.014843    1.753383    2.244548 H         1 <1>         0.023535 
     65 H          -2.607304    2.533258    1.536761 H         1 <1>         0.023535 
     66 H           1.118021   -1.651278    0.512845 H         1 <1>         0.023553 
     67 H           1.182297   -0.917849    2.132615 H         1 <1>         0.023553 
     68 H          -0.259354   -1.728030    1.464795 H         1 <1>         0.023553 
     69 H           2.794876   -0.642121   -0.577000 H         1 <1>         0.023829 
     70 H           2.646515    0.361120    0.833162 H         1 <1>         0.023829 
     71 H           3.199545    1.104353   -0.584216 H         1 <1>         0.023829 
     72 H           2.240084    0.978391   -5.803991 H         1 <1>         0.023525 
     73 H           2.833778    2.476712   -5.096727 H         1 <1>         0.023525 
     74 H           1.090549    2.171825   -5.213848 H         1 <1>         0.023525 
     75 H          -1.785611   -0.370186    6.463152 H         1 <1>         0.056334 
     76 H          -0.530294   -0.783633    5.287680 H         1 <1>         0.056334 
     77 H          -2.590116    2.465614    4.639137 H         1 <1>         0.023667 
     78 H          -3.256052    1.514055    5.964658 H         1 <1>         0.023667 
     79 H          -4.118363    1.582148    4.460809 H         1 <1>         0.023667 
     80 H          -4.613280   -1.777047    5.609681 H         1 <1>         0.209801 
     81 H           0.080552    1.081301    6.632215 H         1 <1>         0.209420 
@<TRIPOS>BOND
     1    1    2 1    
     2    1    6 1    
     3    1   24 1    
     4    1   25 1    
     5    2    3 1    
     6    2   36 1    
     7    2   37 1    
     8    3    4 1    
     9    3   38 1    
    10    3   39 1    
    11    4    5 1    
    12    4    7 1    
    13    4   30 1    
    14    5    6 1    
    15    5   10 1    
    16    5   40 1    
    17    6   41 1    
    18    6   42 1    
    19    7    8 1    
    20    7   43 1    
    21    7   44 1    
    22    8    9 1    
    23    8   45 1    
    24    8   46 1    
    25    9   10 1    
    26    9   11 1    
    27    9   29 1    
    28   10   14 2    
    29   11   12 1    
    30   11   15 1    
    31   11   28 1    
    32   12   13 1    
    33   12   18 1    
    34   12   47 1    
    35   13   14 1    
    36   13   34 2    
    37   14   48 1    
    38   15   16 1    
    39   15   49 1    
    40   15   50 1    
    41   16   17 1    
    42   16   51 1    
    43   16   52 1    
    44   17   18 1    
    45   17   19 1    
    46   17   53 1    
    47   18   22 1    
    48   18   27 1    
    49   19   20 1    
    50   19   31 1    
    51   19   32 1    
    52   20   21 1    
    53   20   33 1    
    54   20   54 1    
    55   21   22 1    
    56   21   55 1    
    57   21   56 1    
    58   22   57 1    
    59   22   58 1    
    60   25   23 1    
    61   23   59 1    
    62   24   60 1    
    63   24   61 1    
    64   24   62 1    
    65   25   26 2    
    66   27   63 1    
    67   27   64 1    
    68   27   65 1    
    69   28   66 1    
    70   28   67 1    
    71   28   68 1    
    72   29   69 1    
    73   29   70 1    
    74   29   71 1    
    75   30   72 1    
    76   30   73 1    
    77   30   74 1    
    78   31   35 1    
    79   31   75 1    
    80   31   76 1    
    81   32   77 1    
    82   32   78 1    
    83   32   79 1    
    84   33   80 1    
    85   35   81 1    
@<TRIPOS>SUBSTRUCTURE
     1 ****        1 TEMP              0 ****  ****    0 ROOT 
@<TRIPOS>NORMAL
@<TRIPOS>FF_PBC
FORCE_FIELD_SETUP_FEATURE Force Field Setup information
v1.0  0 0.000000 0.000000 0.000000 0.000000 0.000000 0.000000 NONE 0 0 0 0 1 0 0 0 0 0 0 0 0
