@<TRIPOS>MOLECULE
MOL005089
   63    68     1     1     0
SMALL
GASTEIGER


@<TRIPOS>ATOM
      1 C          -1.324183    4.251784   -4.751610 C.ar      1 <1>         0.072621 
      2 C          -0.331316    3.249187   -5.203470 C.ar      1 <1>        -0.031201 
      3 C          -0.421862    1.959192   -4.798037 C.ar      1 <1>        -0.046445 
      4 C          -1.518946    1.532233   -3.893421 C.ar      1 <1>         0.046631 
      5 C          -2.437421    2.451912   -3.476789 C.ar      1 <1>        -0.046445 
      6 C          -2.337287    3.863695   -3.918882 C.ar      1 <1>        -0.031201 
      7 C          -3.013135    3.558480    2.455455 C.3       1 <1>         0.111896 
      8 C          -4.038170    3.313052    1.320100 C.3       1 <1>         0.114062 
      9 C          -3.967243    1.841149    0.844520 C.3       1 <1>         0.134133 
     10 C          -2.512544    1.468130    0.472497 C.3       1 <1>         0.188670 
     11 O          -1.623734    1.703938    1.574590 O.3       1 <1>        -0.340511 
     12 C          -1.602413    3.075063    2.018872 C.3       1 <1>         0.113005 
     13 C          -1.275843   -0.641867    0.074622 C.3       1 <1>         0.114556 
     14 C           0.055607   -0.137796   -0.622762 C.3       1 <1>        -0.011576 
     15 C           0.052050   -1.619160   -1.162495 C.3       1 <1>         0.031032 
     16 C           0.652430   -2.582688   -0.102557 C.3       1 <1>         0.176637 
     17 C           0.507933   -1.967834    1.309057 C.3       1 <1>         0.033329 
     18 C          -0.956532   -1.459304    1.374333 C.3       1 <1>         0.104258 
     19 O          -1.200691    5.573883   -5.189764 O.3       1 <1>        -0.359832 
     20 C          -1.604751    0.089993   -3.443585 C.2       1 <1>         0.293831 
     21 O          -2.546816   -0.259717   -2.558696 O.3       1 <1>        -0.310595 
     22 O          -0.815194   -0.720497   -3.901184 O.2       1 <1>        -0.259226 
     23 C          -2.463547   -1.609817   -2.052796 C.3       1 <1>         0.070836 
     24 C          -0.610287    3.156613    3.207701 C.3       1 <1>         0.073015 
     25 O          -2.543892    0.071730    0.108198 O.3       1 <1>        -0.338511 
     26 O          -5.365516    3.608801    1.797595 O.3       1 <1>        -0.386401 
     27 O          -2.986151    4.969126    2.751840 O.3       1 <1>        -0.386488 
     28 O          -4.837385    1.683181   -0.294875 O.3       1 <1>        -0.384104 
     29 O          -0.591011    4.495984    3.740386 O.3       1 <1>        -0.392366 
     30 C          -1.440554   -1.819513   -0.900324 C.3       1 <1>         0.085034 
     31 C          -1.248770   -0.791485    2.738554 C.3       1 <1>        -0.032789 
     32 O           2.004061   -2.979806   -0.351529 O.3       1 <1>        -0.364049 
     33 O          -0.253560   -3.685093   -0.175525 O.3       1 <1>        -0.319183 
     34 O          -1.789495   -2.618907    1.233390 O.3       1 <1>        -0.341257 
     35 C          -1.568099   -3.121343   -0.086097 C.3       1 <1>         0.174031 
     36 H           0.471353    3.561962   -5.864088 H         1 <1>         0.064340 
     37 H           0.311678    1.234110   -5.136811 H         1 <1>         0.062606 
     38 H          -3.250582    2.160114   -2.820424 H         1 <1>         0.062606 
     39 H          -3.076429    4.578259   -3.571441 H         1 <1>         0.064340 
     40 H          -3.343837    2.985256    3.338050 H         1 <1>         0.064673 
     41 H          -3.785653    3.979032    0.476561 H         1 <1>         0.064758 
     42 H          -4.293801    1.187284    1.671367 H         1 <1>         0.067095 
     43 H          -2.234700    2.085301   -0.397222 H         1 <1>         0.093762 
     44 H          -1.233591    3.736207    1.216053 H         1 <1>         0.064668 
     45 H          -0.555749    0.703809   -0.943258 H         1 <1>         0.029866 
     46 H           0.563671    0.075892   -1.574546 H         1 <1>         0.029866 
     47 H           0.330346   -1.954621   -2.181741 H         1 <1>         0.036223 
     48 H           1.228890   -1.147803    1.450154 H         1 <1>         0.034596 
     49 H           0.696746   -2.737311    2.073680 H         1 <1>         0.034596 
     50 H          -1.907689    6.150356   -4.925047 H         1 <1>         0.217313 
     51 H          -3.451278   -1.778661   -1.596499 H         1 <1>         0.057419 
     52 H          -2.336592   -2.367694   -2.843061 H         1 <1>         0.057419 
     53 H          -0.928678    2.444462    3.987556 H         1 <1>         0.058370 
     54 H           0.391822    2.860864    2.853070 H         1 <1>         0.058370 
     55 H          -6.026475    3.471559    1.125028 H         1 <1>         0.210005 
     56 H          -2.345743    5.184367    3.426602 H         1 <1>         0.210004 
     57 H          -4.806389    0.793886   -0.638441 H         1 <1>         0.210110 
     58 H           0.022405    4.598568    4.463860 H         1 <1>         0.209508 
     59 H          -1.130851   -1.538925    3.538021 H         1 <1>         0.025826 
     60 H          -0.543665    0.028735    2.932875 H         1 <1>         0.025826 
     61 H          -2.282999   -0.418239    2.769577 H         1 <1>         0.025826 
     62 H           2.071138   -3.461939   -1.168118 H         1 <1>         0.212768 
     63 H          -2.347681   -3.831525   -0.401173 H         1 <1>         0.091844 
@<TRIPOS>BOND
     1    2    1 1    
     2    6    1 2    
     3    1   19 1    
     4    3    2 2    
     5    2   36 1    
     6    4    3 1    
     7    3   37 1    
     8    4    5 2    
     9   20    4 1    
    10    5    6 1    
    11    5   38 1    
    12    6   39 1    
    13    8    7 1    
    14   12    7 1    
    15    7   27 1    
    16    7   40 1    
    17    9    8 1    
    18    8   26 1    
    19    8   41 1    
    20   10    9 1    
    21    9   28 1    
    22    9   42 1    
    23   10   11 1    
    24   25   10 1    
    25   10   43 1    
    26   11   12 1    
    27   12   24 1    
    28   12   44 1    
    29   13   14 1    
    30   13   18 1    
    31   13   25 1    
    32   30   13 1    
    33   15   14 1    
    34   14   45 1    
    35   14   46 1    
    36   15   16 1    
    37   30   15 1    
    38   15   47 1    
    39   16   17 1    
    40   16   32 1    
    41   16   33 1    
    42   18   17 1    
    43   17   48 1    
    44   17   49 1    
    45   18   31 1    
    46   18   34 1    
    47   19   50 1    
    48   21   20 1    
    49   20   22 2    
    50   23   21 1    
    51   23   30 1    
    52   23   51 1    
    53   23   52 1    
    54   24   29 1    
    55   24   53 1    
    56   24   54 1    
    57   26   55 1    
    58   27   56 1    
    59   28   57 1    
    60   29   58 1    
    61   30   35 1    
    62   31   59 1    
    63   31   60 1    
    64   31   61 1    
    65   32   62 1    
    66   33   35 1    
    67   34   35 1    
    68   35   63 1    
@<TRIPOS>SUBSTRUCTURE
     1 ****        1 TEMP              0 ****  ****    0 ROOT 
@<TRIPOS>NORMAL
@<TRIPOS>FF_PBC
FORCE_FIELD_SETUP_FEATURE Force Field Setup information
v1.0  0 0.000000 0.000000 0.000000 0.000000 0.000000 0.000000 NONE 0 0 0 0 1 0 0 0 0 0 0 0 0
