@<TRIPOS>MOLECULE
MOL001925
   41    45     1     1     0
SMALL
GASTEIGER


@<TRIPOS>ATOM
      1 O           1.185590    0.305373   -2.783130 O.3       1 <1>        -0.341267 
      2 O          -1.067103    0.985108   -2.784453 O.3       1 <1>        -0.319183 
      3 O           2.394164    0.775549    0.064597 O.3       1 <1>        -0.384900 
      4 O          -1.748120    3.231337   -2.613702 O.3       1 <1>        -0.364049 
      5 O          -1.614329   -0.737355    0.223175 O.3       1 <1>        -0.310595 
      6 O          -3.350676   -1.818024    0.811616 O.2       1 <1>        -0.259226 
      7 C           0.049315    0.609759   -0.793939 C.3       1 <1>         0.084670 
      8 C           1.376894    1.394229   -0.736110 C.3       1 <1>         0.108048 
      9 C          -0.651415    1.984877   -0.744858 C.3       1 <1>         0.031012 
     10 C           1.630662    1.567517   -2.266501 C.3       1 <1>         0.103894 
     11 C           0.616564    2.573355   -0.079769 C.3       1 <1>        -0.011942 
     12 C          -0.737901    2.277466   -2.269259 C.3       1 <1>         0.176637 
     13 C          -0.115259    0.070081   -2.224650 C.3       1 <1>         0.174021 
     14 C           0.655369    2.621141   -2.862890 C.3       1 <1>         0.033319 
     15 C          -0.238868   -0.368534    0.369151 C.3       1 <1>         0.070826 
     16 C           3.103386    1.848963   -2.644824 C.3       1 <1>        -0.032799 
     17 C          -2.164466   -1.654251    1.044118 C.2       1 <1>         0.293829 
     18 C          -1.584504   -2.504436    2.168891 C.ar      1 <1>         0.046475 
     19 C          -2.478926   -3.576683    2.691932 C.ar      1 <1>        -0.048875 
     20 C          -0.290973   -2.398118    2.791484 C.ar      1 <1>        -0.048875 
     21 C          -2.090091   -4.432197    3.736679 C.ar      1 <1>        -0.061020 
     22 C           0.114015   -3.312333    3.886400 C.ar      1 <1>        -0.061020 
     23 C          -0.752562   -4.296243    4.351520 C.ar      1 <1>        -0.061719 
     24 H           3.146089    1.348664    0.167036 H         1 <1>         0.210312 
     25 H          -1.570528    4.084867   -2.236334 H         1 <1>         0.212768 
     26 H          -1.606742    2.011484   -0.197788 H         1 <1>         0.036223 
     27 H           0.587098    2.477807    1.017115 H         1 <1>         0.029856 
     28 H           0.915097    3.594113   -0.353288 H         1 <1>         0.029856 
     29 H          -0.438417   -0.978206   -2.317374 H         1 <1>         0.091844 
     30 H           0.962213    3.650977   -2.631071 H         1 <1>         0.034595 
     31 H           0.615356    2.527358   -3.959660 H         1 <1>         0.034595 
     32 H          -0.074215    0.158050    1.319946 H         1 <1>         0.057419 
     33 H           0.442813   -1.225237    0.248790 H         1 <1>         0.057419 
     34 H           3.743324    1.021760   -2.303179 H         1 <1>         0.025826 
     35 H           3.442539    2.786603   -2.179290 H         1 <1>         0.025826 
     36 H           3.197855    1.934541   -3.737846 H         1 <1>         0.025826 
     37 H          -3.467585   -3.719519    2.266791 H         1 <1>         0.062527 
     38 H           0.440692   -1.661684    2.509778 H         1 <1>         0.062527 
     39 H          -2.770127   -5.198519    4.095788 H         1 <1>         0.061778 
     40 H           1.099392   -3.211571    4.331450 H         1 <1>         0.061778 
     41 H          -0.452597   -4.959561    5.156421 H         1 <1>         0.061759 
@<TRIPOS>BOND
     1    1   10 1    
     2   13    1 1    
     3    2   12 1    
     4   13    2 1    
     5    8    3 1    
     6    3   24 1    
     7   12    4 1    
     8    4   25 1    
     9   15    5 1    
    10    5   17 1    
    11   17    6 2    
    12    7    8 1    
    13    7    9 1    
    14    7   13 1    
    15    7   15 1    
    16    8   10 1    
    17    8   11 1    
    18    9   11 1    
    19    9   12 1    
    20    9   26 1    
    21   10   14 1    
    22   10   16 1    
    23   11   27 1    
    24   11   28 1    
    25   12   14 1    
    26   13   29 1    
    27   14   30 1    
    28   14   31 1    
    29   15   32 1    
    30   15   33 1    
    31   16   34 1    
    32   16   35 1    
    33   16   36 1    
    34   17   18 1    
    35   18   19 1    
    36   18   20 2    
    37   19   21 2    
    38   19   37 1    
    39   20   22 1    
    40   20   38 1    
    41   21   23 1    
    42   21   39 1    
    43   22   23 2    
    44   22   40 1    
    45   23   41 1    
@<TRIPOS>SUBSTRUCTURE
     1 ****        3 TEMP              0 ****  ****    0 ROOT 
@<TRIPOS>NORMAL
@<TRIPOS>FF_PBC
FORCE_FIELD_SETUP_FEATURE Force Field Setup information
v1.0  0 0.000000 0.000000 0.000000 0.000000 0.000000 0.000000 NONE 0 0 0 0 1 0 0 0 0 0 0 0 0
