@<TRIPOS>MOLECULE
MOL001304
   15    15     1     1     0
SMALL
GASTEIGER


@<TRIPOS>ATOM
      1 N          -0.118524   -1.533529   -0.554505 N.ar      1 <1>        -0.208256 
      2 C           0.096710   -0.248975   -0.097291 C.ar      1 <1>         0.248643 
      3 C          -1.130827    0.316988    0.166511 C.ar      1 <1>         0.018829 
      4 C          -2.147773   -0.707671   -0.158268 C.ar      1 <1>         0.008209 
      5 C          -1.470840   -1.828825   -0.597727 C.ar      1 <1>         0.170256 
      6 C           1.467402    0.369080    0.063002 C.2       1 <1>         0.223359 
      7 O           2.433568   -0.313085   -0.237022 O.2       1 <1>        -0.286037 
      8 C           1.645864    1.773820    0.573423 C.3       1 <1>         0.004587 
      9 H           0.630311   -2.163385   -0.819687 H         1 <1>         0.452939 
     10 H          -1.320609    1.317616    0.539561 H         1 <1>         0.068628 
     11 H          -3.223471   -0.596970   -0.067458 H         1 <1>         0.067869 
     12 H          -1.928030   -2.763513   -0.915721 H         1 <1>         0.137561 
     13 H           2.713616    2.038027    0.619526 H         1 <1>         0.031138 
     14 H           1.217043    1.859369    1.582917 H         1 <1>         0.031138 
     15 H           1.135660    2.480951   -0.097361 H         1 <1>         0.031138 
@<TRIPOS>BOND
     1    1    2 1    
     2    1    5 1    
     3    1    9 1    
     4    2    3 2    
     5    2    6 1    
     6    3    4 1    
     7    3   10 1    
     8    4    5 2    
     9    4   11 1    
    10    5   12 1    
    11    6    7 2    
    12    6    8 1    
    13    8   13 1    
    14    8   14 1    
    15    8   15 1    
@<TRIPOS>SUBSTRUCTURE
     1 ****        1 TEMP              0 ****  ****    0 ROOT 
@<TRIPOS>NORMAL
@<TRIPOS>FF_PBC
FORCE_FIELD_SETUP_FEATURE Force Field Setup information
v1.0  0 0.000000 0.000000 0.000000 0.000000 0.000000 0.000000 NONE 0 0 0 0 1 0 0 0 0 0 0 0 0
