@<TRIPOS>MOLECULE
MOL004706
   40    42     1     1     0
SMALL
GASTEIGER


@<TRIPOS>ATOM
      1 O          -2.522756   -1.812016    0.062882 O.3       1 <1>        -0.388544 
      2 C           0.502357   -1.114566    0.503081 C.3       1 <1>        -0.026317 
      3 C           1.336312   -1.050788    1.817735 C.3       1 <1>        -0.028316 
      4 C           1.967364   -0.598835    0.478242 C.3       1 <1>        -0.031638 
      5 C          -0.734931   -0.182180    0.331622 C.3       1 <1>        -0.002313 
      6 C          -0.577377    1.291293   -0.149087 C.3       1 <1>        -0.014361 
      7 C          -1.800537   -0.781893   -0.639594 C.3       1 <1>         0.066960 
      8 C           2.306280    0.897567    0.266196 C.3       1 <1>        -0.045743 
      9 C           1.929143   -2.385198    2.349824 C.3       1 <1>        -0.059279 
     10 C           0.990384   -0.018046    2.926454 C.3       1 <1>        -0.059279 
     11 C          -2.068828    1.674896   -0.351136 C.3       1 <1>        -0.043571 
     12 C          -2.735078    0.420862   -0.976111 C.3       1 <1>        -0.023425 
     13 C           1.830774    1.374979   -1.128521 C.3       1 <1>        -0.031446 
     14 C           0.336523    1.500884   -1.348204 C.2       1 <1>        -0.073151 
     15 C          -1.204533   -1.414332   -1.936135 C.3       1 <1>        -0.035789 
     16 C          -0.084373    1.814275   -2.583674 C.2       1 <1>        -0.099174 
     17 H          -3.227838   -2.190072   -0.452092 H         1 <1>         0.210159 
     18 H           0.314822   -2.183584    0.326477 H         1 <1>         0.031262 
     19 H           2.603398   -1.316928   -0.064893 H         1 <1>         0.030906 
     20 H          -1.238551   -0.171081    1.312882 H         1 <1>         0.033705 
     21 H          -0.214283    1.970411    0.635037 H         1 <1>         0.034919 
     22 H           3.407823    0.948843    0.286003 H         1 <1>         0.027121 
     23 H           1.973187    1.577388    1.057299 H         1 <1>         0.027121 
     24 H           2.830588   -2.165517    2.941044 H         1 <1>         0.023516 
     25 H           1.187958   -2.872676    3.000555 H         1 <1>         0.023516 
     26 H           2.203357   -3.091115    1.550919 H         1 <1>         0.023516 
     27 H           1.926551    0.309414    3.402715 H         1 <1>         0.023516 
     28 H           0.438552    0.870188    2.602672 H         1 <1>         0.023516 
     29 H           0.374699   -0.522873    3.685577 H         1 <1>         0.023516 
     30 H          -2.526189    1.839587    0.641590 H         1 <1>         0.027196 
     31 H          -2.221631    2.602929   -0.924028 H         1 <1>         0.027196 
     32 H          -2.854236    0.548260   -2.062377 H         1 <1>         0.029301 
     33 H          -3.744513    0.275581   -0.556780 H         1 <1>         0.029301 
     34 H           2.244979    0.690323   -1.887077 H         1 <1>         0.031008 
     35 H           2.261617    2.374694   -1.304300 H         1 <1>         0.031008 
     36 H          -0.491506   -0.747751   -2.434169 H         1 <1>         0.025730 
     37 H          -0.692140   -2.362629   -1.725469 H         1 <1>         0.025730 
     38 H          -2.013809   -1.644795   -2.645636 H         1 <1>         0.025730 
     39 H           0.638156    1.958800   -3.386942 H         1 <1>         0.053449 
     40 H          -1.121310    1.944831   -2.876882 H         1 <1>         0.053449 
@<TRIPOS>BOND
     1    7    1 1    
     2    1   17 1    
     3    2    3 1    
     4    2    4 1    
     5    5    2 1    
     6    2   18 1    
     7    4    3 1    
     8    3    9 1    
     9    3   10 1    
    10    4    8 1    
    11    4   19 1    
    12    5    6 1    
    13    5    7 1    
    14    5   20 1    
    15    6   11 1    
    16    6   14 1    
    17    6   21 1    
    18    7   12 1    
    19    7   15 1    
    20    8   13 1    
    21    8   22 1    
    22    8   23 1    
    23    9   24 1    
    24    9   25 1    
    25    9   26 1    
    26   10   27 1    
    27   10   28 1    
    28   10   29 1    
    29   11   12 1    
    30   11   30 1    
    31   11   31 1    
    32   12   32 1    
    33   12   33 1    
    34   13   14 1    
    35   13   34 1    
    36   13   35 1    
    37   14   16 2    
    38   15   36 1    
    39   15   37 1    
    40   15   38 1    
    41   16   39 1    
    42   16   40 1    
@<TRIPOS>SUBSTRUCTURE
     1 ****        2 TEMP              0 ****  ****    0 ROOT 
@<TRIPOS>NORMAL
@<TRIPOS>FF_PBC
FORCE_FIELD_SETUP_FEATURE Force Field Setup information
v1.0  0 0.000000 0.000000 0.000000 0.000000 0.000000 0.000000 NONE 0 0 0 0 1 0 0 0 0 0 0 0 0
