@<TRIPOS>MOLECULE
MOL007500
   86    90     1     1     0
SMALL
GASTEIGER


@<TRIPOS>ATOM
      1 C          -0.018373   -1.377231   -0.408656 C.3       1 <1>        -0.020580 
      2 C           1.210336   -0.401636   -0.726472 C.3       1 <1>        -0.020803 
      3 C          -1.308039   -0.494250   -0.159450 C.3       1 <1>        -0.026947 
      4 C          -0.309327   -2.310364   -1.632305 C.3       1 <1>        -0.020362 
      5 C           0.312618   -2.285288    0.841760 C.3       1 <1>        -0.058701 
      6 C           1.418536    0.492597    0.541483 C.3       1 <1>        -0.003636 
      7 C           2.623177   -1.071923   -0.894671 C.3       1 <1>        -0.046420 
      8 C           1.051138    0.474237   -2.040036 C.3       1 <1>        -0.058709 
      9 C          -2.713130   -1.236949   -0.096018 C.3       1 <1>        -0.022826 
     10 C          -1.069927    0.601343    0.946078 C.3       1 <1>        -0.022710 
     11 C          -1.650312   -3.109377   -1.589048 C.3       1 <1>         0.059651 
     12 C           2.887100    1.008763    0.486001 C.3       1 <1>        -0.006412 
     13 C           0.220554    1.454750    0.745024 C.3       1 <1>         0.059199 
     14 C           3.594295   -0.314703    0.062504 C.3       1 <1>        -0.046732 
     15 C          -2.874264   -2.160276   -1.365247 C.3       1 <1>        -0.001805 
     16 C          -3.865826   -0.154607   -0.136960 C.3       1 <1>        -0.044647 
     17 C          -2.859502   -2.044931    1.236075 C.3       1 <1>        -0.058936 
     18 O          -1.631816   -4.216027   -0.671571 O.3       1 <1>        -0.391457 
     19 C           3.507796    1.745585    1.737439 C.3       1 <1>         0.070594 
     20 O           0.432139    2.254937    1.919588 O.3       1 <1>        -0.391475 
     21 C          -4.286625   -2.849345   -1.592081 C.3       1 <1>        -0.003252 
     22 C          -5.063630   -0.464237   -1.081051 C.3       1 <1>        -0.025829 
     23 O           2.955169    3.064063    1.987279 O.3       1 <1>        -0.367489 
     24 C           5.063439    1.865581    1.650366 C.3       1 <1>        -0.023620 
     25 C           3.184081    1.001188    3.071754 C.3       1 <1>        -0.035526 
     26 C          -5.456268   -1.957930   -1.041781 C.3       1 <1>         0.060719 
     27 C          -4.538721   -3.051514   -3.130002 C.3       1 <1>        -0.057108 
     28 C          -4.409508   -4.271694   -0.960361 C.3       1 <1>        -0.057108 
     29 C           3.377794    4.198211    1.182967 C.3       1 <1>         0.064685 
     30 C           5.505270    2.907571    0.595106 C.3       1 <1>        -0.047866 
     31 O          -5.884202   -2.339588    0.278463 O.3       1 <1>        -0.391246 
     32 C           4.922932    4.278050    1.019250 C.3       1 <1>        -0.024151 
     33 C           2.904403    5.390931    2.065283 C.3       1 <1>        -0.036058 
     34 C           2.663350    4.350067   -0.194841 C.3       1 <1>        -0.036058 
     35 H          -1.431960    0.089764   -1.074232 H         1 <1>         0.031237 
     36 H           1.419036   -0.126897    1.442404 H         1 <1>         0.033467 
     37 H          -2.790188   -1.445588   -2.199442 H         1 <1>         0.033703 
     38 H           0.532667   -3.004237   -1.780932 H         1 <1>         0.029566 
     39 H          -0.400547   -1.709733   -2.545153 H         1 <1>         0.029566 
     40 H          -0.031404   -3.314869    0.738367 H         1 <1>         0.023534 
     41 H          -0.120955   -1.909930    1.774324 H         1 <1>         0.023534 
     42 H           1.380833   -2.399538    1.052255 H         1 <1>         0.023534 
     43 H           3.022708   -0.966766   -1.917172 H         1 <1>         0.027088 
     44 H           2.648289   -2.156918   -0.723139 H         1 <1>         0.027088 
     45 H           1.090160   -0.145344   -2.945987 H         1 <1>         0.023534 
     46 H           0.151866    1.089305   -2.132485 H         1 <1>         0.023534 
     47 H           1.879631    1.179758   -2.171553 H         1 <1>         0.023534 
     48 H          -1.904318    1.313777    1.006530 H         1 <1>         0.029314 
     49 H          -0.984446    0.162955    1.947374 H         1 <1>         0.029314 
     50 H          -1.755334   -3.574744   -2.585022 H         1 <1>         0.059637 
     51 H           2.981801    1.695912   -0.346568 H         1 <1>         0.033209 
     52 H           0.119777    2.130971   -0.116000 H         1 <1>         0.059620 
     53 H           3.766007   -0.951822    0.942982 H         1 <1>         0.026910 
     54 H           4.568870   -0.135325   -0.421953 H         1 <1>         0.026910 
     55 H          -4.252552    0.021073    0.880476 H         1 <1>         0.027150 
     56 H          -3.523860    0.825311   -0.505253 H         1 <1>         0.027150 
     57 H          -3.886081   -2.367926    1.415753 H         1 <1>         0.023526 
     58 H          -2.600161   -1.433694    2.108695 H         1 <1>         0.023526 
     59 H          -2.249876   -2.949802    1.265422 H         1 <1>         0.023526 
     60 H          -0.955666   -4.861686   -0.856310 H         1 <1>         0.209789 
     61 H          -0.255256    2.891304    2.086517 H         1 <1>         0.209789 
     62 H          -4.821600   -0.193873   -2.122432 H         1 <1>         0.029037 
     63 H          -5.928423    0.156621   -0.790026 H         1 <1>         0.029037 
     64 H           5.535705    0.892267    1.455423 H         1 <1>         0.029292 
     65 H           5.465414    2.212132    2.616279 H         1 <1>         0.029292 
     66 H           3.547720   -0.035098    3.070735 H         1 <1>         0.025738 
     67 H           2.108120    0.999861    3.291034 H         1 <1>         0.025738 
     68 H           3.655974    1.517332    3.921796 H         1 <1>         0.025738 
     69 H          -6.354190   -2.090875   -1.673078 H         1 <1>         0.059853 
     70 H          -5.504616   -3.549416   -3.309825 H         1 <1>         0.023588 
     71 H          -3.777005   -3.682060   -3.606678 H         1 <1>         0.023588 
     72 H          -4.560025   -2.091282   -3.666631 H         1 <1>         0.023588 
     73 H          -5.449670   -4.626301   -1.030084 H         1 <1>         0.023588 
     74 H          -4.125836   -4.285202    0.098829 H         1 <1>         0.023588 
     75 H          -3.784244   -5.004827   -1.490650 H         1 <1>         0.023588 
     76 H           6.606705    2.970444    0.572434 H         1 <1>         0.026705 
     77 H           5.173260    2.617008   -0.411938 H         1 <1>         0.026705 
     78 H          -6.599545   -1.814491    0.624096 H         1 <1>         0.209800 
     79 H           5.192403    5.052889    0.283337 H         1 <1>         0.029274 
     80 H           5.383759    4.559887    1.980114 H         1 <1>         0.029274 
     81 H           3.228105    6.356629    1.647173 H         1 <1>         0.025720 
     82 H           1.805934    5.389876    2.144405 H         1 <1>         0.025720 
     83 H           3.315741    5.302875    3.083121 H         1 <1>         0.025720 
     84 H           1.615536    4.035030   -0.101440 H         1 <1>         0.025720 
     85 H           3.141891    3.792438   -1.008329 H         1 <1>         0.025720 
     86 H           2.671037    5.402431   -0.517276 H         1 <1>         0.025720 
@<TRIPOS>BOND
     1    1    2 1    
     2    1    3 1    
     3    1    4 1    
     4    1    5 1    
     5    2    6 1    
     6    2    7 1    
     7    2    8 1    
     8    3    9 1    
     9    3   10 1    
    10    3   35 1    
    11    4   11 1    
    12    4   38 1    
    13    4   39 1    
    14    5   40 1    
    15    5   41 1    
    16    5   42 1    
    17    6   12 1    
    18    6   13 1    
    19    6   36 1    
    20    7   14 1    
    21    7   43 1    
    22    7   44 1    
    23    8   45 1    
    24    8   46 1    
    25    8   47 1    
    26    9   15 1    
    27    9   16 1    
    28    9   17 1    
    29   10   13 1    
    30   10   48 1    
    31   10   49 1    
    32   11   15 1    
    33   11   18 1    
    34   11   50 1    
    35   12   14 1    
    36   12   19 1    
    37   12   51 1    
    38   13   20 1    
    39   13   52 1    
    40   14   53 1    
    41   14   54 1    
    42   15   21 1    
    43   15   37 1    
    44   16   22 1    
    45   16   55 1    
    46   16   56 1    
    47   17   57 1    
    48   17   58 1    
    49   17   59 1    
    50   18   60 1    
    51   19   23 1    
    52   19   24 1    
    53   19   25 1    
    54   20   61 1    
    55   21   26 1    
    56   21   27 1    
    57   21   28 1    
    58   22   26 1    
    59   22   62 1    
    60   22   63 1    
    61   23   29 1    
    62   24   30 1    
    63   24   64 1    
    64   24   65 1    
    65   25   66 1    
    66   25   67 1    
    67   25   68 1    
    68   26   31 1    
    69   26   69 1    
    70   27   70 1    
    71   27   71 1    
    72   27   72 1    
    73   28   73 1    
    74   28   74 1    
    75   28   75 1    
    76   29   32 1    
    77   29   33 1    
    78   29   34 1    
    79   30   32 1    
    80   30   76 1    
    81   30   77 1    
    82   31   78 1    
    83   32   79 1    
    84   32   80 1    
    85   33   81 1    
    86   33   82 1    
    87   33   83 1    
    88   34   84 1    
    89   34   85 1    
    90   34   86 1    
@<TRIPOS>SUBSTRUCTURE
     1 ****        1 TEMP              0 ****  ****    0 ROOT 
@<TRIPOS>NORMAL
@<TRIPOS>FF_PBC
FORCE_FIELD_SETUP_FEATURE Force Field Setup information
v1.0  0 0.000000 0.000000 0.000000 0.000000 0.000000 0.000000 NONE 0 0 0 0 1 0 0 0 0 0 0 0 0
