@<TRIPOS>MOLECULE
MOL002232
   40    41     1     1     0
SMALL
GASTEIGER


@<TRIPOS>ATOM
      1 C          -1.356341    3.987007   -0.601339 C.ar      1 <1>        -0.054590 
      2 C          -0.825650    2.615345   -0.398533 C.ar      1 <1>        -0.024850 
      3 C          -1.745453    1.530587   -0.325207 C.ar      1 <1>        -0.054590 
      4 C          -3.201027    1.773812   -0.464869 C.ar      1 <1>        -0.061202 
      5 C          -3.683873    3.075709   -0.659029 C.ar      1 <1>        -0.061723 
      6 C          -2.736102    4.211923   -0.726416 C.ar      1 <1>        -0.061202 
      7 C           1.325579    1.291105   -0.491893 C.2       1 <1>         0.010504 
      8 C           0.674691    2.441880   -0.272034 C.2       1 <1>        -0.048937 
      9 C           4.766099   -0.136854   -0.409825 C.3       1 <1>         0.146973 
     10 O           3.345719   -0.041842   -0.665571 O.3       1 <1>        -0.300768 
     11 C           2.785211    1.134707   -0.353034 C.2       1 <1>         0.287089 
     12 O           3.453911    2.080004    0.033796 O.2       1 <1>        -0.259866 
     13 C           5.113460   -0.193952    1.103396 C.3       1 <1>         0.186273 
     14 O           4.435792   -1.282682    1.753501 O.3       1 <1>        -0.340674 
     15 C           4.748682   -2.590586    1.222996 C.3       1 <1>         0.113000 
     16 C           4.638968   -2.677922   -0.327802 C.3       1 <1>         0.111923 
     17 C           5.275774   -1.452071   -1.045108 C.3       1 <1>         0.114928 
     18 C           6.042253   -3.220374    1.810497 C.3       1 <1>         0.073015 
     19 O           6.714384   -1.482253   -1.115635 O.3       1 <1>        -0.386373 
     20 O           6.533156   -0.324405    1.284118 O.3       1 <1>        -0.364860 
     21 O           6.059363   -4.627040    1.495941 O.3       1 <1>        -0.392366 
     22 O           3.233719   -2.777617   -0.651154 O.3       1 <1>        -0.386488 
     23 H          -0.672271    4.827715   -0.655198 H         1 <1>         0.062344 
     24 H          -1.407285    0.515199   -0.160859 H         1 <1>         0.062344 
     25 H          -3.893725    0.939445   -0.415705 H         1 <1>         0.061776 
     26 H          -4.749562    3.253512   -0.760510 H         1 <1>         0.061759 
     27 H          -3.112124    5.219331   -0.873446 H         1 <1>         0.061776 
     28 H           0.803424    0.389073   -0.800268 H         1 <1>         0.067735 
     29 H           1.251209    3.323450    0.009692 H         1 <1>         0.062525 
     30 H           5.312680    0.690167   -0.894990 H         1 <1>         0.068008 
     31 H           4.767411    0.734227    1.588187 H         1 <1>         0.093572 
     32 H           3.949797   -3.233558    1.629477 H         1 <1>         0.064668 
     33 H           5.137477   -3.597821   -0.680144 H         1 <1>         0.064673 
     34 H           4.958375   -1.475628   -2.100162 H         1 <1>         0.064785 
     35 H           6.956053   -2.757315    1.418505 H         1 <1>         0.058370 
     36 H           6.026335   -3.080442    2.905031 H         1 <1>         0.058370 
     37 H           7.133236   -1.252681   -0.292083 H         1 <1>         0.210005 
     38 H           6.763453   -0.325755    2.208971 H         1 <1>         0.212561 
     39 H           6.811474   -5.087956    1.857161 H         1 <1>         0.209508 
     40 H           3.051032   -2.879045   -1.580056 H         1 <1>         0.210004 
@<TRIPOS>BOND
     1    2    1 1    
     2    1    6 2    
     3    1   23 1    
     4    2    3 2    
     5    8    2 1    
     6    3    4 1    
     7    3   24 1    
     8    4    5 2    
     9    4   25 1    
    10    6    5 1    
    11    5   26 1    
    12    6   27 1    
    13    7    8 2    
    14   11    7 1    
    15    7   28 1    
    16    8   29 1    
    17   10    9 1    
    18    9   13 1    
    19    9   17 1    
    20    9   30 1    
    21   10   11 1    
    22   11   12 2    
    23   13   14 1    
    24   13   20 1    
    25   13   31 1    
    26   14   15 1    
    27   15   16 1    
    28   15   18 1    
    29   15   32 1    
    30   16   17 1    
    31   16   22 1    
    32   16   33 1    
    33   17   19 1    
    34   17   34 1    
    35   18   21 1    
    36   18   35 1    
    37   18   36 1    
    38   19   37 1    
    39   20   38 1    
    40   21   39 1    
    41   22   40 1    
@<TRIPOS>SUBSTRUCTURE
     1 ****        9 TEMP              0 ****  ****    0 ROOT 
@<TRIPOS>NORMAL
@<TRIPOS>FF_PBC
FORCE_FIELD_SETUP_FEATURE Force Field Setup information
v1.0  0 0.000000 0.000000 0.000000 0.000000 0.000000 0.000000 NONE 0 0 0 0 1 0 0 0 0 0 0 0 0
