@<TRIPOS>MOLECULE
MOL000471
   30    32     1     1     0
SMALL
GASTEIGER


@<TRIPOS>ATOM
      1 C           1.806909    1.446044   -0.314239 C.ar      1 <1>         0.084402 
      2 C           3.076623    0.694677   -0.182775 C.ar      1 <1>        -0.025843 
      3 C           3.076076   -0.675075    0.131276 C.ar      1 <1>        -0.019046 
      4 C           1.785546   -1.378947    0.328461 C.ar      1 <1>        -0.044711 
      5 C           0.558665   -0.681320    0.206767 C.ar      1 <1>         0.035888 
      6 C          -0.761638   -1.390168    0.408083 C.2       1 <1>         0.194676 
      7 O          -0.775810   -2.577639    0.688593 O.2       1 <1>        -0.286609 
      8 C          -2.066591   -0.638738    0.264947 C.ar      1 <1>         0.035560 
      9 C          -3.352250   -1.353968    0.456585 C.ar      1 <1>        -0.050071 
     10 C          -4.565405   -0.669784    0.325608 C.ar      1 <1>        -0.058617 
     11 C          -4.569282    0.774254   -0.005052 C.ar      1 <1>        -0.031198 
     12 C          -3.365967    1.468793   -0.189171 C.ar      1 <1>         0.084072 
     13 C          -2.071533    0.747191   -0.051846 C.ar      1 <1>         0.062807 
     14 C          -0.763664    1.480054   -0.247808 C.2       1 <1>         0.199438 
     15 O          -0.777359    2.672270   -0.512860 O.2       1 <1>        -0.286435 
     16 C           0.560356    0.762491   -0.122255 C.ar      1 <1>         0.062826 
     17 C           4.387197   -1.456145    0.271549 C.3       1 <1>         0.069330 
     18 O           4.586590   -2.177372   -0.955931 O.3       1 <1>        -0.390415 
     19 O          -3.413823    2.830627   -0.499422 O.3       1 <1>        -0.359102 
     20 O           1.858843    2.808471   -0.623610 O.3       1 <1>        -0.359093 
     21 H           4.011093    1.223152   -0.335314 H         1 <1>         0.064686 
     22 H           1.786603   -2.437644    0.565912 H         1 <1>         0.062826 
     23 H          -3.354342   -2.412018    0.699277 H         1 <1>         0.062482 
     24 H          -5.505736   -1.194012    0.465705 H         1 <1>         0.061857 
     25 H          -5.511062    1.302923   -0.106396 H         1 <1>         0.064341 
     26 H           5.228972   -0.770402    0.464888 H         1 <1>         0.060711 
     27 H           4.301660   -2.149887    1.124472 H         1 <1>         0.060711 
     28 H           5.380062   -2.704670   -0.955211 H         1 <1>         0.209847 
     29 H          -2.556084    3.230979   -0.605825 H         1 <1>         0.217340 
     30 H           1.005357    3.226063   -0.694313 H         1 <1>         0.217340 
@<TRIPOS>BOND
     1    1    2 1    
     2    1   16 2    
     3    1   20 1    
     4    2    3 2    
     5    2   21 1    
     6    3    4 1    
     7    3   17 1    
     8    4    5 2    
     9    4   22 1    
    10    5    6 1    
    11    5   16 1    
    12    6    7 2    
    13    6    8 1    
    14    8    9 1    
    15    8   13 2    
    16    9   10 2    
    17    9   23 1    
    18   10   11 1    
    19   10   24 1    
    20   11   12 2    
    21   11   25 1    
    22   12   13 1    
    23   12   19 1    
    24   13   14 1    
    25   14   15 2    
    26   14   16 1    
    27   17   18 1    
    28   17   26 1    
    29   17   27 1    
    30   18   28 1    
    31   19   29 1    
    32   20   30 1    
@<TRIPOS>SUBSTRUCTURE
     1 ****        1 TEMP              0 ****  ****    0 ROOT 
@<TRIPOS>NORMAL
@<TRIPOS>FF_PBC
FORCE_FIELD_SETUP_FEATURE Force Field Setup information
v1.0  0 0.000000 0.000000 0.000000 0.000000 0.000000 0.000000 NONE 0 0 0 0 1 0 0 0 0 0 0 0 0
