@<TRIPOS>MOLECULE
MOL004838
   39    42     1     1     0
SMALL
GASTEIGER


@<TRIPOS>ATOM
      1 C          -3.069719    0.872574    4.365622 C.ar      1 <1>         0.081517 
      2 C          -3.449036   -0.424013    3.868244 C.ar      1 <1>        -0.030781 
      3 C          -2.622938   -1.104454    2.840106 C.ar      1 <1>        -0.042891 
      4 C          -1.481377   -0.427624    2.394150 C.ar      1 <1>         0.087941 
      5 C          -1.072992    0.886461    2.902810 C.ar      1 <1>         0.366247 
      6 C          -1.841001    1.534320    3.860254 C.ar      1 <1>         0.072760 
      7 C          -0.459057   -0.758029    1.398623 C.ar      1 <1>         0.059286 
      8 C           0.409480    0.320958    1.404628 C.ar      1 <1>         0.366865 
      9 O           0.105139    1.342313    2.324600 O.2       1 <1>        -0.203660 
     10 O          -3.837431    1.530871    5.326323 O.3       1 <1>        -0.359526 
     11 C           1.572652    0.396082    0.493208 C.ar      1 <1>         0.109511 
     12 C           1.289469    0.383289   -0.957283 C.ar      1 <1>         0.102955 
     13 C           2.333563    0.474652   -1.883918 C.ar      1 <1>         0.035368 
     14 C           3.737647    0.540379   -1.404798 C.ar      1 <1>         0.082205 
     15 C           4.005140    0.553253   -0.020944 C.ar      1 <1>        -0.030344 
     16 C           2.893544    0.486397    0.959310 C.ar      1 <1>        -0.040630 
     17 O          -0.032851    0.302334   -1.393163 O.3       1 <1>        -0.333226 
     18 C          -0.247332   -0.361992   -2.652981 C.3       1 <1>         0.088867 
     19 C           0.726942    0.133704   -3.698797 C.2       1 <1>        -0.051916 
     20 C           1.959359    0.513789   -3.347647 C.2       1 <1>        -0.050881 
     21 O           4.796288    0.584924   -2.308092 O.3       1 <1>        -0.359161 
     22 C          -1.708662   -0.067109   -3.078688 C.3       1 <1>        -0.031936 
     23 C          -0.034192   -1.887129   -2.463974 C.3       1 <1>        -0.031936 
     24 H          -4.342801   -0.917009    4.237148 H         1 <1>         0.064345 
     25 H          -2.891480   -2.081054    2.448768 H         1 <1>         0.062723 
     26 H          -1.548236    2.509329    4.234738 H         1 <1>         0.073775 
     27 H          -0.401208   -1.648741    0.782136 H         1 <1>         0.072053 
     28 H          -4.598417    1.047893    5.629699 H         1 <1>         0.217318 
     29 H           5.033494    0.606666    0.321379 H         1 <1>         0.064362 
     30 H           3.106417    0.504264    2.023134 H         1 <1>         0.062802 
     31 H           0.431572    0.160946   -4.748980 H         1 <1>         0.060053 
     32 H           2.675807    0.845294   -4.099846 H         1 <1>         0.062283 
     33 H           4.711805   -0.085338   -2.976949 H         1 <1>         0.217339 
     34 H          -1.843689    1.017204   -3.210682 H         1 <1>         0.026052 
     35 H          -1.955734   -0.575171   -4.024188 H         1 <1>         0.026052 
     36 H          -2.404140   -0.414805   -2.299101 H         1 <1>         0.026052 
     37 H          -0.199751   -2.423902   -3.411124 H         1 <1>         0.026052 
     38 H          -0.737670   -2.278374   -1.713524 H         1 <1>         0.026052 
     39 H           0.991401   -2.093151   -2.120300 H         1 <1>         0.026052 
@<TRIPOS>BOND
     1    1    2 2    
     2    1    6 1    
     3    1   10 1    
     4    2    3 1    
     5    2   24 1    
     6    3    4 2    
     7    3   25 1    
     8    4    5 1    
     9    4    7 1    
    10    5    6 2    
    11    5    9 1    
    12    6   26 1    
    13    7    8 2    
    14    7   27 1    
    15    8    9 1    
    16    8   11 1    
    17   10   28 1    
    18   11   12 1    
    19   11   16 2    
    20   12   13 2    
    21   12   17 1    
    22   13   14 1    
    23   13   20 1    
    24   14   15 2    
    25   14   21 1    
    26   15   16 1    
    27   15   29 1    
    28   16   30 1    
    29   17   18 1    
    30   18   19 1    
    31   18   22 1    
    32   18   23 1    
    33   19   20 2    
    34   19   31 1    
    35   20   32 1    
    36   21   33 1    
    37   22   34 1    
    38   22   35 1    
    39   22   36 1    
    40   23   37 1    
    41   23   38 1    
    42   23   39 1    
@<TRIPOS>SUBSTRUCTURE
     1 ****        1 TEMP              0 ****  ****    0 ROOT 
@<TRIPOS>NORMAL
@<TRIPOS>FF_PBC
FORCE_FIELD_SETUP_FEATURE Force Field Setup information
v1.0  0 0.000000 0.000000 0.000000 0.000000 0.000000 0.000000 NONE 0 0 0 0 1 0 0 0 0 0 0 0 0
