@<TRIPOS>MOLECULE
MOL000206
   24    24     1     1     0
SMALL
GASTEIGER


@<TRIPOS>ATOM
      1 C           0.230438    1.643930   -0.929526 C.ar      1 <1>         0.105959 
      2 C           0.791945    0.334519   -0.526277 C.ar      1 <1>        -0.022011 
      3 C          -1.177271    1.836827   -0.956357 C.ar      1 <1>         0.102471 
      4 O           1.099007    2.679229   -1.281181 O.3       1 <1>        -0.345331 
      5 C          -0.052023   -0.740958   -0.156731 C.ar      1 <1>        -0.022734 
      6 C          -2.066403    0.709005   -0.579938 C.ar      1 <1>        -0.028842 
      7 O          -1.707858    3.074373   -1.335467 O.3       1 <1>        -0.357268 
      8 C           1.224941    3.707171   -0.285650 C.3       1 <1>         0.043136 
      9 C          -1.523252   -0.537379   -0.198086 C.ar      1 <1>        -0.052010 
     10 C           0.583598   -2.052935    0.259096 C.2       1 <1>        -0.058701 
     11 C          -0.027716   -2.981877    1.008142 C.2       1 <1>        -0.086550 
     12 C           0.626372   -4.285818    1.398646 C.3       1 <1>        -0.046509 
     13 H           1.869612    0.215699   -0.514521 H         1 <1>         0.065001 
     14 H          -3.143654    0.837290   -0.600249 H         1 <1>         0.064421 
     15 H          -2.656937    3.087870   -1.374301 H         1 <1>         0.217422 
     16 H           1.938202    4.457815   -0.656470 H         1 <1>         0.052871 
     17 H           1.611277    3.286992    0.656010 H         1 <1>         0.052871 
     18 H           0.261366    4.203602   -0.094257 H         1 <1>         0.052871 
     19 H          -2.202132   -1.342625    0.055735 H         1 <1>         0.062425 
     20 H           1.605697   -2.234056   -0.074240 H         1 <1>         0.062025 
     21 H          -1.039120   -2.830449    1.381743 H         1 <1>         0.056945 
     22 H           0.015499   -5.123662    1.029665 H         1 <1>         0.027180 
     23 H           1.642802   -4.392210    0.990000 H         1 <1>         0.027180 
     24 H           0.685470   -4.348405    2.495913 H         1 <1>         0.027180 
@<TRIPOS>BOND
     1    1    2 1    
     2    1    3 2    
     3    1    4 1    
     4    2    5 2    
     5    2   13 1    
     6    3    6 1    
     7    3    7 1    
     8    4    8 1    
     9    5    9 1    
    10    5   10 1    
    11    6    9 2    
    12    6   14 1    
    13    7   15 1    
    14    8   16 1    
    15    8   17 1    
    16    8   18 1    
    17    9   19 1    
    18   10   11 2    
    19   10   20 1    
    20   11   12 1    
    21   11   21 1    
    22   12   22 1    
    23   12   23 1    
    24   12   24 1    
@<TRIPOS>SUBSTRUCTURE
     1 ****        1 TEMP              0 ****  ****    0 ROOT 
@<TRIPOS>NORMAL
@<TRIPOS>FF_PBC
FORCE_FIELD_SETUP_FEATURE Force Field Setup information
v1.0  0 0.000000 0.000000 0.000000 0.000000 0.000000 0.000000 NONE 0 0 0 0 1 0 0 0 0 0 0 0 0
