@<TRIPOS>MOLECULE
MOL004847
   23    22     1     1     0
SMALL
GASTEIGER


@<TRIPOS>ATOM
      1 C           0.780926   -0.077591    0.000211 C.3       1 <1>        -0.048369 
      2 C          -0.656975   -0.696868   -0.000026 C.3       1 <1>        -0.037710 
      3 C           0.862400    1.476217   -0.000008 C.3       1 <1>        -0.055435 
      4 C          -0.512477   -2.250005    0.000176 C.3       1 <1>        -0.060062 
      5 C          -1.455657   -0.278291   -1.270159 C.3       1 <1>        -0.060062 
      6 C          -1.456200   -0.278012    1.269674 C.3       1 <1>        -0.060062 
      7 C           2.338267    1.957220    0.000235 C.3       1 <1>        -0.065259 
      8 H           1.320553   -0.442376    0.889258 H         1 <1>         0.027026 
      9 H           1.320960   -0.442642   -0.888480 H         1 <1>         0.027026 
     10 H           0.371874    1.890786   -0.894367 H         1 <1>         0.026281 
     11 H           0.371481    1.891060    0.894006 H         1 <1>         0.026281 
     12 H          -1.498361   -2.739795    0.000037 H         1 <1>         0.023490 
     13 H           0.035389   -2.590051    0.892524 H         1 <1>         0.023490 
     14 H           0.035739   -2.590251   -0.891881 H         1 <1>         0.023490 
     15 H          -2.414623   -0.816952   -1.315702 H         1 <1>         0.023490 
     16 H          -1.682998    0.797263   -1.268683 H         1 <1>         0.023490 
     17 H          -0.884616   -0.514126   -2.181110 H         1 <1>         0.023490 
     18 H          -2.415212   -0.816618    1.314890 H         1 <1>         0.023490 
     19 H          -0.885575   -0.513707    2.180922 H         1 <1>         0.023490 
     20 H          -1.683485    0.797553    1.267899 H         1 <1>         0.023490 
     21 H           2.379635    3.058162    0.000077 H         1 <1>         0.022978 
     22 H           2.864336    1.589497    0.895087 H         1 <1>         0.022978 
     23 H           2.864719    1.589226   -0.894279 H         1 <1>         0.022978 
@<TRIPOS>BOND
     1    1    2 1    
     2    1    3 1    
     3    1    8 1    
     4    1    9 1    
     5    2    4 1    
     6    2    5 1    
     7    2    6 1    
     8    3    7 1    
     9    3   10 1    
    10    3   11 1    
    11    4   12 1    
    12    4   13 1    
    13    4   14 1    
    14    5   15 1    
    15    5   16 1    
    16    5   17 1    
    17    6   18 1    
    18    6   19 1    
    19    6   20 1    
    20    7   21 1    
    21    7   22 1    
    22    7   23 1    
@<TRIPOS>SUBSTRUCTURE
     1 ****        1 TEMP              0 ****  ****    0 ROOT 
@<TRIPOS>NORMAL
@<TRIPOS>FF_PBC
FORCE_FIELD_SETUP_FEATURE Force Field Setup information
v1.0  0 0.000000 0.000000 0.000000 0.000000 0.000000 0.000000 NONE 0 0 0 0 1 0 0 0 0 0 0 0 0
