@<TRIPOS>MOLECULE
MOL003515
   81    85     1     1     0
SMALL
GASTEIGER


@<TRIPOS>ATOM
      1 C          -3.035400    4.491301   -0.337907 C.3       1 <1>        -0.025333 
      2 C          -2.054880    5.203567   -1.300253 C.3       1 <1>         0.069889 
      3 C          -1.549612    4.271622   -2.450168 C.3       1 <1>         0.082150 
      4 C          -0.928705    2.982142   -1.794990 C.3       1 <1>        -0.018514 
      5 C          -1.847116    2.196257   -0.782066 C.3       1 <1>        -0.024480 
      6 C          -2.380910    3.222065    0.277736 C.3       1 <1>        -0.044696 
      7 C          -0.218384    2.002504   -2.779950 C.3       1 <1>        -0.048128 
      8 C           0.661392    0.964050   -2.026909 C.3       1 <1>        -0.046256 
      9 C          -0.061122    0.164673   -0.890216 C.3       1 <1>        -0.019372 
     10 C          -0.914745    1.159290   -0.027088 C.3       1 <1>        -0.025724 
     11 C           0.999594   -0.557019    0.060868 C.3       1 <1>        -0.005095 
     12 C           0.212403   -1.378728    1.071589 C.2       1 <1>        -0.062908 
     13 C          -0.937225   -0.897003    1.572881 C.2       1 <1>        -0.083635 
     14 C          -1.567895    0.422632    1.189225 C.3       1 <1>        -0.030614 
     15 C           2.058053   -1.352584   -0.782726 C.3       1 <1>        -0.042415 
     16 C           2.712311   -2.546536   -0.043392 C.3       1 <1>        -0.036973 
     17 C           1.629447   -3.500967    0.538243 C.3       1 <1>         0.062460 
     18 C           0.747516   -2.718861    1.561207 C.3       1 <1>        -0.004222 
     19 C           2.336516   -4.727948    1.213257 C.3       1 <1>        -0.037288 
     20 C           1.757212   -5.076362    2.610536 C.3       1 <1>        -0.046865 
     21 C           1.860401   -3.886218    3.619856 C.3       1 <1>        -0.034278 
     22 C           1.456833   -2.536462    2.934014 C.3       1 <1>        -0.040331 
     23 C           0.750264   -3.995923   -0.600226 C.2       1 <1>         0.266382 
     24 O          -0.468732   -3.913051   -0.585723 O.2       1 <1>        -0.264536 
     25 O           1.394617   -4.532632   -1.641358 O.3       1 <1>        -0.330836 
     26 C          -1.003970   -0.894783   -1.566089 C.3       1 <1>        -0.058491 
     27 C          -3.092467    1.519145   -1.467207 C.3       1 <1>        -0.058997 
     28 O          -2.719654    6.373663   -1.812882 O.3       1 <1>        -0.390733 
     29 C          -2.675775    4.026355   -3.502831 C.3       1 <1>        -0.047806 
     30 C           1.813970    0.410819    1.002071 C.3       1 <1>        -0.055323 
     31 C           0.912688   -4.193697    4.821175 C.3       1 <1>        -0.059792 
     32 C           3.311081   -3.765596    4.190397 C.3       1 <1>        -0.059792 
     33 C          -0.485996    5.052979   -3.211963 C.2       1 <1>         0.268316 
     34 O           0.003699    6.087206   -2.781016 O.2       1 <1>        -0.264462 
     35 O          -0.132624    4.580590   -4.409050 O.3       1 <1>        -0.330785 
     36 H          -3.286402    5.189200    0.478533 H         1 <1>         0.029050 
     37 H          -3.983718    4.284958   -0.851343 H         1 <1>         0.029050 
     38 H          -1.201255    5.525592   -0.673787 H         1 <1>         0.060365 
     39 H          -0.097160    3.411091   -1.208310 H         1 <1>         0.031705 
     40 H          -3.116180    2.734165    0.939256 H         1 <1>         0.027149 
     41 H          -1.558086    3.580176    0.919833 H         1 <1>         0.027149 
     42 H           0.480551    2.550289   -3.427002 H         1 <1>         0.026858 
     43 H          -0.923184    1.507285   -3.458370 H         1 <1>         0.026858 
     44 H           1.068950    0.271599   -2.781274 H         1 <1>         0.027096 
     45 H           1.514256    1.526769   -1.624526 H         1 <1>         0.027096 
     46 H          -0.162862    1.817138    0.423248 H         1 <1>         0.031460 
     47 H          -1.478591   -1.479543    2.321616 H         1 <1>         0.057198 
     48 H          -1.551686    1.068168    2.083446 H         1 <1>         0.031042 
     49 H          -2.620735    0.185696    0.998892 H         1 <1>         0.031042 
     50 H           2.855555   -0.665414   -1.110127 H         1 <1>         0.027403 
     51 H           1.652962   -1.782358   -1.703780 H         1 <1>         0.027403 
     52 H           3.388049   -2.189210    0.745021 H         1 <1>         0.027586 
     53 H           3.345795   -3.103466   -0.755598 H         1 <1>         0.027586 
     54 H          -0.134578   -3.341897    1.781075 H         1 <1>         0.035619 
     55 H           2.252632   -5.621638    0.571306 H         1 <1>         0.027577 
     56 H           3.413892   -4.548572    1.339551 H         1 <1>         0.027577 
     57 H           2.290811   -5.949757    3.020030 H         1 <1>         0.027072 
     58 H           0.709828   -5.389768    2.474157 H         1 <1>         0.027072 
     59 H           0.797777   -1.956934    3.601719 H         1 <1>         0.027642 
     60 H           2.345462   -1.912739    2.788580 H         1 <1>         0.027642 
     61 H           0.796594   -4.815990   -2.324251 H         1 <1>         0.220226 
     62 H          -1.706914   -1.348504   -0.855375 H         1 <1>         0.023542 
     63 H          -1.591294   -0.451338   -2.372526 H         1 <1>         0.023542 
     64 H          -0.481768   -1.725409   -2.047901 H         1 <1>         0.023542 
     65 H          -3.319265    0.525020   -1.072229 H         1 <1>         0.023525 
     66 H          -4.022663    2.077815   -1.313913 H         1 <1>         0.023525 
     67 H          -2.985059    1.406753   -2.550244 H         1 <1>         0.023525 
     68 H          -2.145971    6.925833   -2.335878 H         1 <1>         0.209816 
     69 H          -2.353645    3.306314   -4.268973 H         1 <1>         0.024077 
     70 H          -2.915600    4.969682   -4.019539 H         1 <1>         0.024077 
     71 H          -3.610904    3.664847   -3.065279 H         1 <1>         0.024077 
     72 H           2.198015    1.295143    0.482084 H         1 <1>         0.023829 
     73 H           2.697095   -0.076236    1.427441 H         1 <1>         0.023829 
     74 H           1.231984    0.765233    1.868278 H         1 <1>         0.023829 
     75 H           0.996964   -3.420455    5.601216 H         1 <1>         0.023499 
     76 H           1.169143   -5.163198    5.276035 H         1 <1>         0.023499 
     77 H          -0.137501   -4.233333    4.492706 H         1 <1>         0.023499 
     78 H           3.611946   -4.689567    4.707562 H         1 <1>         0.023499 
     79 H           4.047015   -3.563025    3.398219 H         1 <1>         0.023499 
     80 H           3.365788   -2.938272    4.915921 H         1 <1>         0.023499 
     81 H           0.527649    5.122283   -4.827798 H         1 <1>         0.220227 
@<TRIPOS>BOND
     1    1    2 1    
     2    1    6 1    
     3    1   36 1    
     4    1   37 1    
     5    2    3 1    
     6    2   28 1    
     7    2   38 1    
     8    3    4 1    
     9    3   29 1    
    10    3   33 1    
    11    4    5 1    
    12    4    7 1    
    13    4   39 1    
    14    5    6 1    
    15    5   10 1    
    16    5   27 1    
    17    6   40 1    
    18    6   41 1    
    19    7    8 1    
    20    7   42 1    
    21    7   43 1    
    22    8    9 1    
    23    8   44 1    
    24    8   45 1    
    25    9   10 1    
    26    9   11 1    
    27    9   26 1    
    28   10   14 1    
    29   10   46 1    
    30   11   12 1    
    31   11   15 1    
    32   11   30 1    
    33   12   13 2    
    34   12   18 1    
    35   13   14 1    
    36   13   47 1    
    37   14   48 1    
    38   14   49 1    
    39   15   16 1    
    40   15   50 1    
    41   15   51 1    
    42   16   17 1    
    43   16   52 1    
    44   16   53 1    
    45   17   18 1    
    46   17   19 1    
    47   17   23 1    
    48   18   22 1    
    49   18   54 1    
    50   19   20 1    
    51   19   55 1    
    52   19   56 1    
    53   20   21 1    
    54   20   57 1    
    55   20   58 1    
    56   21   22 1    
    57   21   31 1    
    58   21   32 1    
    59   22   59 1    
    60   22   60 1    
    61   23   24 2    
    62   23   25 1    
    63   25   61 1    
    64   26   62 1    
    65   26   63 1    
    66   26   64 1    
    67   27   65 1    
    68   27   66 1    
    69   27   67 1    
    70   28   68 1    
    71   29   69 1    
    72   29   70 1    
    73   29   71 1    
    74   30   72 1    
    75   30   73 1    
    76   30   74 1    
    77   31   75 1    
    78   31   76 1    
    79   31   77 1    
    80   32   78 1    
    81   32   79 1    
    82   32   80 1    
    83   33   34 2    
    84   33   35 1    
    85   35   81 1    
@<TRIPOS>SUBSTRUCTURE
     1 ****        1 TEMP              0 ****  ****    0 ROOT 
@<TRIPOS>NORMAL
@<TRIPOS>FF_PBC
FORCE_FIELD_SETUP_FEATURE Force Field Setup information
v1.0  0 0.000000 0.000000 0.000000 0.000000 0.000000 0.000000 NONE 0 0 0 0 1 0 0 0 0 0 0 0 0
