@<TRIPOS>MOLECULE
MOL004885
   44    47     1     1     0
SMALL
GASTEIGER


@<TRIPOS>ATOM
      1 C           3.252268    1.666483    0.943570 C.ar      1 <1>         0.091610 
      2 C           3.092193    0.394719    1.686887 C.ar      1 <1>         0.077794 
      3 C           4.145630   -0.545717    1.715256 C.ar      1 <1>         0.087987 
      4 C           5.397115   -0.259558    0.980523 C.ar      1 <1>        -0.001314 
      5 C           5.547046    0.943113    0.271647 C.ar      1 <1>         0.077503 
      6 C           4.446480    1.935584    0.269594 C.ar      1 <1>        -0.001053 
      7 O           2.204932    2.592715    0.901854 O.3       1 <1>        -0.342797 
      8 C           1.232039    2.517352    1.956186 C.3       1 <1>         0.068180 
      9 O           6.708555    1.227640   -0.442690 O.3       1 <1>        -0.359667 
     10 O           4.035850   -1.750698    2.413229 O.3       1 <1>        -0.358966 
     11 C           0.638290    1.096734    2.147426 C.3       1 <1>         0.073488 
     12 C           1.781573    0.156459    2.395847 C.2       1 <1>         0.177728 
     13 C          -0.187358    0.563888    0.959808 C.ar      1 <1>        -0.004160 
     14 C          -2.353240   -0.357704    0.072885 C.ar      1 <1>         0.034768 
     15 C          -1.619809    0.207222    1.139429 C.ar      1 <1>         0.086079 
     16 C          -1.691395   -0.619395   -1.221015 C.ar      1 <1>         0.086876 
     17 C          -0.369932   -0.225733   -1.418231 C.ar      1 <1>        -0.030620 
     18 C           0.395824    0.385993   -0.305707 C.ar      1 <1>        -0.052895 
     19 C          -3.818235   -0.723034    0.171742 C.2       1 <1>        -0.050894 
     20 C          -4.466952   -1.145107   -0.919342 C.2       1 <1>        -0.051917 
     21 C          -3.805813   -1.253611   -2.282024 C.3       1 <1>         0.088837 
     22 O          -2.368125   -1.291420   -2.234266 O.3       1 <1>        -0.334125 
     23 O           1.657998   -0.784018    3.164441 O.2       1 <1>        -0.291153 
     24 O          -2.241419    0.443472    2.363293 O.3       1 <1>        -0.358868 
     25 C          -4.191664   -2.595726   -2.959995 C.3       1 <1>        -0.031936 
     26 C          -4.236378   -0.049836   -3.158043 C.3       1 <1>        -0.031936 
     27 H           6.192162   -0.997678    0.994252 H         1 <1>         0.066923 
     28 H           4.560438    2.870785   -0.266806 H         1 <1>         0.066931 
     29 H           0.425895    3.230461    1.721592 H         1 <1>         0.057526 
     30 H           1.718759    2.839343    2.893114 H         1 <1>         0.057526 
     31 H           7.225673    0.462276   -0.665975 H         1 <1>         0.217316 
     32 H           3.225048   -1.856458    2.901789 H         1 <1>         0.217342 
     33 H           0.015959    1.108816    3.054896 H         1 <1>         0.045323 
     34 H           0.105417   -0.389697   -2.380663 H         1 <1>         0.064358 
     35 H           1.417559    0.669321   -0.496727 H         1 <1>         0.062209 
     36 H          -4.333529   -0.636429    1.128046 H         1 <1>         0.062283 
     37 H          -5.523063   -1.410483   -0.838373 H         1 <1>         0.060053 
     38 H          -2.367406   -0.369390    2.840660 H         1 <1>         0.217351 
     39 H          -3.838923   -3.432152   -2.339496 H         1 <1>         0.026052 
     40 H          -5.278957   -2.681321   -3.089712 H         1 <1>         0.026052 
     41 H          -3.709953   -2.672821   -3.944799 H         1 <1>         0.026052 
     42 H          -5.304131   -0.130520   -3.429191 H         1 <1>         0.026052 
     43 H          -3.635149   -0.028782   -4.084451 H         1 <1>         0.026052 
     44 H          -4.081474    0.895012   -2.610361 H         1 <1>         0.026052 
@<TRIPOS>BOND
     1    1    2 1    
     2    1    6 2    
     3    1    7 1    
     4    2    3 2    
     5    2   12 1    
     6    3    4 1    
     7    3   10 1    
     8    4    5 2    
     9    4   27 1    
    10    5    6 1    
    11    5    9 1    
    12    6   28 1    
    13    7    8 1    
    14    8   11 1    
    15    8   29 1    
    16    8   30 1    
    17    9   31 1    
    18   10   32 1    
    19   11   12 1    
    20   11   13 1    
    21   11   33 1    
    22   12   23 2    
    23   13   15 1    
    24   13   18 2    
    25   15   14 2    
    26   14   16 1    
    27   14   19 1    
    28   15   24 1    
    29   16   17 2    
    30   16   22 1    
    31   17   18 1    
    32   17   34 1    
    33   18   35 1    
    34   19   20 2    
    35   19   36 1    
    36   20   21 1    
    37   20   37 1    
    38   21   22 1    
    39   21   25 1    
    40   21   26 1    
    41   24   38 1    
    42   25   39 1    
    43   25   40 1    
    44   25   41 1    
    45   26   42 1    
    46   26   43 1    
    47   26   44 1    
@<TRIPOS>SUBSTRUCTURE
     1 ****        1 TEMP              0 ****  ****    0 ROOT 
@<TRIPOS>NORMAL
@<TRIPOS>FF_PBC
FORCE_FIELD_SETUP_FEATURE Force Field Setup information
v1.0  0 0.000000 0.000000 0.000000 0.000000 0.000000 0.000000 NONE 0 0 0 0 1 0 0 0 0 0 0 0 0
