@<TRIPOS>MOLECULE
MOL000209
   39    40     1     1     0
SMALL
GASTEIGER


@<TRIPOS>ATOM
      1 C           0.521417   -0.507729   -0.306553 C.2       1 <1>        -0.066723 
      2 C           0.720427    0.943324    0.014039 C.3       1 <1>        -0.017030 
      3 C          -0.697250   -1.046335   -0.441681 C.2       1 <1>        -0.077161 
      4 C           1.809314   -1.266409   -0.507649 C.3       1 <1>        -0.022422 
      5 C           0.394766    1.270133    1.507875 C.3       1 <1>        -0.037325 
      6 C           2.168448    1.164627   -0.487360 C.3       1 <1>        -0.045729 
      7 C          -1.993545   -0.269213   -0.303717 C.3       1 <1>        -0.002079 
      8 C           2.892544   -0.184801   -0.253553 C.3       1 <1>        -0.046208 
      9 C           1.999369   -2.520883    0.385778 C.3       1 <1>        -0.058692 
     10 C          -0.940651    0.578711    1.934501 C.3       1 <1>        -0.049100 
     11 C           1.507635    0.949571    2.546049 C.3       1 <1>        -0.061874 
     12 C          -2.056309    0.783416    0.867628 C.3       1 <1>        -0.042796 
     13 C          -2.369875    0.149743   -1.723963 C.2       1 <1>        -0.072879 
     14 C          -2.542239   -0.981517   -2.724558 C.3       1 <1>        -0.043483 
     15 C          -2.535097    1.408573   -2.156212 C.2       1 <1>        -0.099152 
     16 H           0.055745    1.542631   -0.630328 H         1 <1>         0.034828 
     17 H          -0.751986   -2.108630   -0.689380 H         1 <1>         0.057775 
     18 H           1.838597   -1.569028   -1.568003 H         1 <1>         0.034301 
     19 H           0.251068    2.366393    1.564816 H         1 <1>         0.030384 
     20 H           2.142886    1.333290   -1.578059 H         1 <1>         0.027123 
     21 H           2.659133    2.033659   -0.025306 H         1 <1>         0.027123 
     22 H          -2.729464   -1.036527   -0.001246 H         1 <1>         0.038791 
     23 H           3.763668   -0.310156   -0.919540 H         1 <1>         0.027107 
     24 H           3.262266   -0.237789    0.779068 H         1 <1>         0.027107 
     25 H           3.018664   -2.915769    0.254927 H         1 <1>         0.023544 
     26 H           1.286210   -3.312886    0.113916 H         1 <1>         0.023544 
     27 H           1.853137   -2.278978    1.447575 H         1 <1>         0.023544 
     28 H          -1.262446    1.018600    2.893315 H         1 <1>         0.026830 
     29 H          -0.791545   -0.498549    2.114731 H         1 <1>         0.026830 
     30 H           1.186407    1.262538    3.550702 H         1 <1>         0.023259 
     31 H           2.436810    1.492445    2.321764 H         1 <1>         0.023259 
     32 H           1.715102   -0.127116    2.585247 H         1 <1>         0.023259 
     33 H          -3.041683    0.720993    1.363058 H         1 <1>         0.027404 
     34 H          -1.965874    1.825857    0.542175 H         1 <1>         0.027404 
     35 H          -3.134783   -0.687484   -3.605662 H         1 <1>         0.027446 
     36 H          -1.552410   -1.303849   -3.078820 H         1 <1>         0.027446 
     37 H          -3.052622   -1.839745   -2.264642 H         1 <1>         0.027446 
     38 H          -2.782408    1.608732   -3.199954 H         1 <1>         0.053450 
     39 H          -2.435347    2.309498   -1.558918 H         1 <1>         0.053450 
@<TRIPOS>BOND
     1    1    2 1    
     2    1    3 2    
     3    1    4 1    
     4    2    5 1    
     5    2    6 1    
     6    2   16 1    
     7    3    7 1    
     8    3   17 1    
     9    4    8 1    
    10    4    9 1    
    11    4   18 1    
    12    5   10 1    
    13    5   11 1    
    14    5   19 1    
    15    6    8 1    
    16    6   20 1    
    17    6   21 1    
    18    7   12 1    
    19    7   13 1    
    20    7   22 1    
    21    8   23 1    
    22    8   24 1    
    23    9   25 1    
    24    9   26 1    
    25    9   27 1    
    26   10   12 1    
    27   10   28 1    
    28   10   29 1    
    29   11   30 1    
    30   11   31 1    
    31   11   32 1    
    32   12   33 1    
    33   12   34 1    
    34   13   14 1    
    35   13   15 2    
    36   14   35 1    
    37   14   36 1    
    38   14   37 1    
    39   15   38 1    
    40   15   39 1    
@<TRIPOS>SUBSTRUCTURE
     1 ****        1 TEMP              0 ****  ****    0 ROOT 
@<TRIPOS>NORMAL
@<TRIPOS>FF_PBC
FORCE_FIELD_SETUP_FEATURE Force Field Setup information
v1.0  0 0.000000 0.000000 0.000000 0.000000 0.000000 0.000000 NONE 0 0 0 0 1 0 0 0 0 0 0 0 0
