@<TRIPOS>MOLECULE
MOL004620
   32    34     1     1     0
SMALL
GASTEIGER


@<TRIPOS>ATOM
      1 O           1.144230   -1.564612   -1.225586 O.3       1 <1>        -0.309356 
      2 O          -0.222333   -0.205917   -3.277554 O.3       1 <1>        -0.380303 
      3 O           0.598750    1.361313   -0.043829 O.3       1 <1>        -0.386238 
      4 O           3.703273    0.821083   -2.362475 O.3       1 <1>        -0.392364 
      5 N          -0.472273   -1.017147    0.411870 N.ar      1 <1>        -0.131697 
      6 N          -0.164023   -1.088655    2.633379 N.ar      1 <1>        -0.182219 
      7 N          -2.538225    0.331262    0.431204 N.ar      1 <1>        -0.173021 
      8 N          -3.206064    0.972205    2.666475 N.ar      1 <1>        -0.221797 
      9 N          -1.959807    0.291815    4.644078 N.3       1 <1>        -0.284765 
     10 C          -0.323758    0.104344   -1.873667 C.3       1 <1>         0.172815 
     11 C          -0.235251   -1.204929   -1.058229 C.3       1 <1>         0.298101 
     12 C           0.932789    0.818089   -1.338627 C.3       1 <1>         0.118333 
     13 C           1.937408   -0.359657   -1.204076 C.3       1 <1>         0.116889 
     14 C           2.948972   -0.404049   -2.374459 C.3       1 <1>         0.073153 
     15 C          -1.497132   -0.307155    0.969546 C.ar      1 <1>         0.338776 
     16 C           0.325195   -1.512984    1.396429 C.ar      1 <1>         0.271918 
     17 C          -1.278393   -0.344252    2.418785 C.ar      1 <1>         0.197660 
     18 C          -2.144131    0.305562    3.246866 C.ar      1 <1>         0.139686 
     19 C          -3.405713    0.983888    1.276262 C.ar      1 <1>         0.124352 
     20 H          -0.214576    0.566289   -3.836672 H         1 <1>         0.210285 
     21 H           1.321122    1.844434    0.350349 H         1 <1>         0.210008 
     22 H           4.358153    0.864352   -3.054273 H         1 <1>         0.209508 
     23 H          -2.829792   -0.138040    5.119601 H         1 <1>         0.125394 
     24 H          -1.820155    1.302407    5.000345 H         1 <1>         0.125394 
     25 H          -1.245499    0.675394   -1.676909 H         1 <1>         0.071554 
     26 H          -0.901842   -1.982036   -1.467620 H         1 <1>         0.144492 
     27 H           1.262804    1.619363   -2.022774 H         1 <1>         0.064917 
     28 H           2.498198   -0.277968   -0.258662 H         1 <1>         0.064805 
     29 H           2.406520   -0.521399   -3.327360 H         1 <1>         0.058372 
     30 H           3.614377   -1.273972   -2.240030 H         1 <1>         0.058372 
     31 H           1.203319   -2.139348    1.260626 H         1 <1>         0.162031 
     32 H          -4.256295    1.517411    0.864271 H         1 <1>         0.104946 
@<TRIPOS>BOND
     1    1   11 1    
     2   13    1 1    
     3   10    2 1    
     4    2   20 1    
     5   12    3 1    
     6    3   21 1    
     7   14    4 1    
     8    4   22 1    
     9   11    5 1    
    10    5   15 1    
    11    5   16 1    
    12   16    6 2    
    13    6   17 1    
    14   15    7 2    
    15    7   19 1    
    16    8   18 1    
    17   19    8 2    
    18   18    9 1    
    19    9   23 1    
    20    9   24 1    
    21   10   11 1    
    22   12   10 1    
    23   10   25 1    
    24   11   26 1    
    25   13   12 1    
    26   12   27 1    
    27   13   14 1    
    28   13   28 1    
    29   14   29 1    
    30   14   30 1    
    31   15   17 1    
    32   16   31 1    
    33   17   18 2    
    34   19   32 1    
@<TRIPOS>SUBSTRUCTURE
     1 ****        2 TEMP              0 ****  ****    0 ROOT 
@<TRIPOS>NORMAL
@<TRIPOS>FF_PBC
FORCE_FIELD_SETUP_FEATURE Force Field Setup information
v1.0  0 0.000000 0.000000 0.000000 0.000000 0.000000 0.000000 NONE 0 0 0 0 1 0 0 0 0 0 0 0 0
