@<TRIPOS>MOLECULE
MOL004119
   14    14     1     1     0
SMALL
GASTEIGER


@<TRIPOS>ATOM
      1 C          -1.259322   -0.245856   -0.247267 C.ar      1 <1>         0.046474 
      2 C          -1.012442    0.939624    0.583260 C.ar      1 <1>         0.054376 
      3 C           0.348509    1.011425    0.717135 C.ar      1 <1>         0.394769 
      4 O           1.010433   -0.020316    0.048755 O.2       1 <1>        -0.206708 
      5 C          -0.021124   -0.758839   -0.523139 C.ar      1 <1>         0.330358 
      6 C           0.217017   -2.009470   -1.368351 C.3       1 <1>         0.051853 
      7 C           1.066820    2.086883    1.501275 C.2       1 <1>         0.246170 
      8 O           2.284510    2.079084    1.571516 O.2       1 <1>        -0.286432 
      9 H          -2.219682   -0.632051   -0.572464 H         1 <1>         0.071032 
     10 H          -1.754270    1.612737    1.000068 H         1 <1>         0.071526 
     11 H           1.296783   -2.209049   -1.438757 H         1 <1>         0.036372 
     12 H          -0.280209   -2.872845   -0.901601 H         1 <1>         0.036372 
     13 H          -0.188740   -1.856607   -2.379538 H         1 <1>         0.036372 
     14 H           0.512119    2.875178    2.008909 H         1 <1>         0.117466 
@<TRIPOS>BOND
     1    1    2 1    
     2    1    5 2    
     3    1    9 1    
     4    2    3 2    
     5    2   10 1    
     6    3    4 1    
     7    3    7 1    
     8    4    5 1    
     9    5    6 1    
    10    6   11 1    
    11    6   12 1    
    12    6   13 1    
    13    7    8 2    
    14    7   14 1    
@<TRIPOS>SUBSTRUCTURE
     1 ****        1 TEMP              0 ****  ****    0 ROOT 
@<TRIPOS>NORMAL
@<TRIPOS>FF_PBC
FORCE_FIELD_SETUP_FEATURE Force Field Setup information
v1.0  0 0.000000 0.000000 0.000000 0.000000 0.000000 0.000000 NONE 0 0 0 0 1 0 0 0 0 0 0 0 0
