@<TRIPOS>MOLECULE
MOL004554
   56    58     1     1     0
SMALL
GASTEIGER


@<TRIPOS>ATOM
      1 C          -3.342472    1.938048    1.528421 C.3       1 <1>         0.111896 
      2 C          -3.074000    0.408518    1.575951 C.3       1 <1>         0.113007 
      3 O          -1.875685    0.089879    2.312691 O.3       1 <1>        -0.340431 
      4 C          -0.683547    0.746633    1.845492 C.3       1 <1>         0.190786 
      5 C          -0.844640    2.291096    1.866354 C.3       1 <1>         0.134212 
      6 C          -2.086339    2.706501    1.032257 C.3       1 <1>         0.114063 
      7 O          -0.318327    0.256102    0.540440 O.3       1 <1>        -0.319517 
      8 C           1.085138    0.376512    0.210561 C.3       1 <1>         0.168977 
      9 O           1.206113    1.040975   -1.052669 O.3       1 <1>        -0.349801 
     10 C           0.431486    0.423991   -2.092189 C.3       1 <1>         0.062774 
     11 C           0.623654   -1.120099   -2.168568 C.3       1 <1>         0.071631 
     12 C           1.859151   -1.534415   -1.306618 C.3       1 <1>        -0.015573 
     13 C           1.727111   -1.042701    0.167888 C.3       1 <1>         0.037039 
     14 C           3.026955   -1.141171    0.953469 C.2       1 <1>        -0.040252 
     15 C           4.210791   -1.356442    0.358818 C.2       1 <1>        -0.082168 
     16 C           4.389435   -1.537727   -1.125629 C.3       1 <1>        -0.034134 
     17 C           3.180686   -0.995023   -1.922059 C.3       1 <1>        -0.045266 
     18 C          -0.649774   -1.855320   -1.775982 C.2       1 <1>         0.267520 
     19 O          -0.695367   -2.514898   -0.752349 O.2       1 <1>        -0.264581 
     20 H           1.932857   -2.636477   -1.316087 H         1 <1>         0.031640 
     21 H           1.038805   -1.725401    0.688891 H         1 <1>         0.039846 
     22 C           2.918083   -1.000478    2.464103 C.3       1 <1>         0.065725 
     23 O           4.143885   -1.360537    3.129870 O.3       1 <1>        -0.390724 
     24 H           0.070184    0.452036    2.593826 H         1 <1>         0.093840 
     25 O          -0.930431    2.729914    3.239317 O.3       1 <1>        -0.384103 
     26 O          -3.721589    2.374202    2.851415 O.3       1 <1>        -0.386488 
     27 O          -1.824957    2.484517   -0.366877 O.3       1 <1>        -0.386401 
     28 C          -3.156609   -0.298567    0.197126 C.3       1 <1>         0.073015 
     29 O          -4.491330   -0.163654   -0.329337 O.3       1 <1>        -0.392366 
     30 O          -1.776078   -1.826534   -2.518316 O.3       1 <1>        -0.318250 
     31 C          -1.693089   -1.341472   -3.874017 C.3       1 <1>         0.045876 
     32 H          -4.191379    2.128992    0.849211 H         1 <1>         0.064673 
     33 H          -3.893091   -0.034930    2.166128 H         1 <1>         0.064668 
     34 H           0.045165    2.752180    1.405911 H         1 <1>         0.067096 
     35 H          -2.244279    3.790146    1.169240 H         1 <1>         0.064758 
     36 H           1.655036    1.044255    0.873580 H         1 <1>         0.091667 
     37 H           0.770186    0.903814   -3.024102 H         1 <1>         0.056852 
     38 H          -0.619752    0.705788   -1.941972 H         1 <1>         0.056852 
     39 H           0.856310   -1.422016   -3.200858 H         1 <1>         0.042757 
     40 H           5.123642   -1.424740    0.952050 H         1 <1>         0.057244 
     41 H           5.303373   -1.016986   -1.458799 H         1 <1>         0.030750 
     42 H           4.519589   -2.614956   -1.317794 H         1 <1>         0.030750 
     43 H           3.279948   -1.309024   -2.974594 H         1 <1>         0.027128 
     44 H           3.221903    0.104237   -1.895465 H         1 <1>         0.027128 
     45 H           2.115231   -1.659843    2.836164 H         1 <1>         0.060399 
     46 H           2.670304    0.038748    2.728083 H         1 <1>         0.060399 
     47 H           4.101852   -1.280867    4.078646 H         1 <1>         0.209834 
     48 H          -1.014578    3.672502    3.339107 H         1 <1>         0.210110 
     49 H          -3.946982    3.297591    2.905818 H         1 <1>         0.210004 
     50 H          -2.537682    2.755916   -0.937706 H         1 <1>         0.210005 
     51 H          -2.907046   -1.363060    0.342535 H         1 <1>         0.058370 
     52 H          -2.447559    0.124897   -0.521232 H         1 <1>         0.058370 
     53 H          -4.606917   -0.613631   -1.161834 H         1 <1>         0.209508 
     54 H          -2.711245   -1.405478   -4.285402 H         1 <1>         0.052962 
     55 H          -1.372477   -0.295148   -3.965205 H         1 <1>         0.052962 
     56 H          -1.049540   -1.987989   -4.490576 H         1 <1>         0.052962 
@<TRIPOS>BOND
     1    1    2 1    
     2    1    6 1    
     3    1   26 1    
     4    1   32 1    
     5    2    3 1    
     6    2   28 1    
     7    2   33 1    
     8    3    4 1    
     9    4    5 1    
    10    4    7 1    
    11    4   24 1    
    12    5    6 1    
    13    5   25 1    
    14    5   34 1    
    15    6   27 1    
    16    6   35 1    
    17    7    8 1    
    18    8    9 1    
    19    8   13 1    
    20    8   36 1    
    21    9   10 1    
    22   10   11 1    
    23   10   37 1    
    24   10   38 1    
    25   11   12 1    
    26   11   18 1    
    27   11   39 1    
    28   12   13 1    
    29   12   17 1    
    30   12   20 1    
    31   13   14 1    
    32   13   21 1    
    33   14   15 2    
    34   14   22 1    
    35   15   16 1    
    36   15   40 1    
    37   16   17 1    
    38   16   41 1    
    39   16   42 1    
    40   17   43 1    
    41   17   44 1    
    42   18   19 2    
    43   18   30 1    
    44   22   23 1    
    45   22   45 1    
    46   22   46 1    
    47   23   47 1    
    48   25   48 1    
    49   26   49 1    
    50   27   50 1    
    51   28   29 1    
    52   28   51 1    
    53   28   52 1    
    54   29   53 1    
    55   30   31 1    
    56   31   54 1    
    57   31   55 1    
    58   31   56 1    
@<TRIPOS>SUBSTRUCTURE
     1 ****        1 TEMP              0 ****  ****    0 ROOT 
@<TRIPOS>NORMAL
@<TRIPOS>FF_PBC
FORCE_FIELD_SETUP_FEATURE Force Field Setup information
v1.0  0 0.000000 0.000000 0.000000 0.000000 0.000000 0.000000 NONE 0 0 0 0 1 0 0 0 0 0 0 0 0
