@<TRIPOS>MOLECULE
MOL003557
   39    40     1     1     0
SMALL
GASTEIGER


@<TRIPOS>ATOM
      1 C           0.820230    0.109031   -0.840938 C.3       1 <1>        -0.007955 
      2 C           1.596208   -1.213988   -0.483734 C.3       1 <1>        -0.034486 
      3 C          -0.720057   -0.131070   -1.024830 C.3       1 <1>        -0.037143 
      4 C           1.043371    1.152772    0.239317 C.2       1 <1>        -0.067256 
      5 C          -1.531431    0.163473    0.268733 C.3       1 <1>        -0.019334 
      6 C          -0.006164    2.241231    0.332015 C.3       1 <1>        -0.030678 
      7 C           3.084840   -0.907041   -0.150480 C.3       1 <1>        -0.046226 
      8 C          -1.403496    1.657454    0.687186 C.3       1 <1>        -0.042794 
      9 C           1.379684    0.707628   -2.175872 C.3       1 <1>        -0.055579 
     10 C           3.184968    0.076960    1.044533 C.3       1 <1>        -0.034222 
     11 C           2.100928    1.127417    1.064400 C.2       1 <1>        -0.084224 
     12 C           0.988759   -2.053048    0.680155 C.3       1 <1>        -0.061619 
     13 C          -2.981709   -0.270210    0.138972 C.2       1 <1>        -0.076573 
     14 C          -3.454266   -1.341306    1.098092 C.3       1 <1>        -0.043777 
     15 C          -3.806789    0.259454   -0.775855 C.2       1 <1>        -0.099446 
     16 H           1.580510   -1.874325   -1.368429 H         1 <1>         0.030653 
     17 H          -0.907581   -1.154515   -1.384655 H         1 <1>         0.027936 
     18 H          -1.137747    0.542386   -1.787717 H         1 <1>         0.027936 
     19 H          -1.078991   -0.414035    1.084625 H         1 <1>         0.034578 
     20 H           0.256574    3.025919    1.060023 H         1 <1>         0.031034 
     21 H          -0.052563    2.735497   -0.649965 H         1 <1>         0.031034 
     22 H           3.601020   -0.485718   -1.024742 H         1 <1>         0.027105 
     23 H           3.630969   -1.834046    0.093613 H         1 <1>         0.027105 
     24 H          -1.580066    1.729443    1.774852 H         1 <1>         0.027400 
     25 H          -2.172816    2.276187    0.198084 H         1 <1>         0.027400 
     26 H           2.402383    1.091975   -2.066884 H         1 <1>         0.023820 
     27 H           1.371575   -0.055943   -2.968424 H         1 <1>         0.023820 
     28 H           0.785598    1.559392   -2.537632 H         1 <1>         0.023820 
     29 H           4.172019    0.567458    1.030335 H         1 <1>         0.030749 
     30 H           3.109023   -0.480229    1.991952 H         1 <1>         0.030749 
     31 H           2.208579    1.904986    1.821897 H         1 <1>         0.057180 
     32 H          -0.010879   -2.435888    0.429504 H         1 <1>         0.023268 
     33 H           1.619079   -2.932997    0.882718 H         1 <1>         0.023268 
     34 H           0.926350   -1.469607    1.609442 H         1 <1>         0.023268 
     35 H          -4.510867   -1.610235    0.948603 H         1 <1>         0.027436 
     36 H          -2.847617   -2.249095    0.960057 H         1 <1>         0.027436 
     37 H          -3.334518   -0.986212    2.133071 H         1 <1>         0.027436 
     38 H          -4.844684   -0.060219   -0.859513 H         1 <1>         0.053440 
     39 H          -3.482326    1.029369   -1.473807 H         1 <1>         0.053440 
@<TRIPOS>BOND
     1    1    2 1    
     2    1    3 1    
     3    1    4 1    
     4    1    9 1    
     5    2    7 1    
     6    2   12 1    
     7    2   16 1    
     8    3    5 1    
     9    3   17 1    
    10    3   18 1    
    11    4    6 1    
    12    4   11 2    
    13    5    8 1    
    14    5   13 1    
    15    5   19 1    
    16    6    8 1    
    17    6   20 1    
    18    6   21 1    
    19    7   10 1    
    20    7   22 1    
    21    7   23 1    
    22    8   24 1    
    23    8   25 1    
    24    9   26 1    
    25    9   27 1    
    26    9   28 1    
    27   10   11 1    
    28   10   29 1    
    29   10   30 1    
    30   11   31 1    
    31   12   32 1    
    32   12   33 1    
    33   12   34 1    
    34   13   14 1    
    35   13   15 2    
    36   14   35 1    
    37   14   36 1    
    38   14   37 1    
    39   15   38 1    
    40   15   39 1    
@<TRIPOS>SUBSTRUCTURE
     1 ****        1 TEMP              0 ****  ****    0 ROOT 
@<TRIPOS>NORMAL
@<TRIPOS>FF_PBC
FORCE_FIELD_SETUP_FEATURE Force Field Setup information
v1.0  0 0.000000 0.000000 0.000000 0.000000 0.000000 0.000000 NONE 0 0 0 0 1 0 0 0 0 0 0 0 0
