@<TRIPOS>MOLECULE
MOL000511
   81    85     1     1     0
SMALL
GASTEIGER


@<TRIPOS>ATOM
      1 C           3.907835    1.295131   -0.359358 C.3       1 <1>         0.062686 
      2 C           2.538167    2.044438   -0.359068 C.3       1 <1>        -0.001891 
      3 C           3.691087   -0.043023    0.404620 C.3       1 <1>        -0.036964 
      4 C           4.501847    1.058782   -1.791818 C.3       1 <1>        -0.037513 
      5 C           4.932883    2.063334    0.481171 C.2       1 <1>         0.266390 
      6 C           1.232770    1.232525   -0.323486 C.2       1 <1>        -0.062664 
      7 C           2.500821    3.323442   -1.287040 C.3       1 <1>        -0.033781 
      8 C           2.614461   -0.970651   -0.213701 C.3       1 <1>        -0.042414 
      9 C           3.885584    1.940606   -2.914353 C.3       1 <1>        -0.049212 
     10 O           5.425786    3.190119   -0.029826 O.3       1 <1>        -0.330836 
     11 O           5.315780    1.674057    1.575802 O.2       1 <1>        -0.264536 
     12 C           1.212207   -0.294569   -0.466565 C.3       1 <1>        -0.005087 
     13 C           0.073286    1.891910   -0.146965 C.2       1 <1>        -0.083627 
     14 C           3.576300    3.372493   -2.424300 C.3       1 <1>        -0.040697 
     15 C           2.516614    4.652472   -0.464091 C.3       1 <1>        -0.061601 
     16 C           0.072181   -0.866442    0.508120 C.3       1 <1>        -0.019372 
     17 C           0.882243   -0.485448   -1.990346 C.3       1 <1>        -0.055323 
     18 C          -1.295984    1.273081   -0.076051 C.3       1 <1>        -0.030614 
     19 C           3.125263    4.240343   -3.641038 C.3       1 <1>        -0.062153 
     20 C          -1.329465   -0.277942    0.098141 C.3       1 <1>        -0.025736 
     21 C          -0.087792   -2.430661    0.444212 C.3       1 <1>        -0.046268 
     22 C           0.462190   -0.472775    1.971956 C.3       1 <1>        -0.058491 
     23 C          -2.638142   -0.814372    0.822799 C.3       1 <1>        -0.024959 
     24 C          -1.334346   -3.013078    1.173429 C.3       1 <1>        -0.048609 
     25 C          -2.667545   -2.380562    0.680693 C.3       1 <1>        -0.027836 
     26 C          -3.886376   -0.249436    0.046476 C.3       1 <1>        -0.044720 
     27 C          -2.718265   -0.339457    2.320305 C.3       1 <1>        -0.059009 
     28 C          -3.957416   -3.148236    1.187525 C.3       1 <1>        -0.005589 
     29 C          -5.130353   -1.192117    0.000412 C.3       1 <1>        -0.025831 
     30 C          -5.208313   -2.206984    1.169599 C.3       1 <1>         0.060637 
     31 C          -4.236688   -4.365997    0.236443 C.3       1 <1>        -0.057190 
     32 C          -3.830724   -3.766138    2.619294 C.3       1 <1>        -0.057190 
     33 O          -5.396806   -1.549935    2.434967 O.3       1 <1>        -0.391248 
     34 H           2.489496    2.418255    0.677586 H         1 <1>         0.035871 
     35 H          -1.445347   -0.665634   -0.922207 H         1 <1>         0.031460 
     36 H          -2.662056   -2.542721   -0.409778 H         1 <1>         0.031210 
     37 H           3.383751    0.186754    1.437369 H         1 <1>         0.027586 
     38 H           4.649382   -0.587484    0.459645 H         1 <1>         0.027586 
     39 H           4.412707    0.018200   -2.130976 H         1 <1>         0.027568 
     40 H           5.586457    1.258500   -1.760287 H         1 <1>         0.027568 
     41 H           1.541211    3.296029   -1.825303 H         1 <1>         0.030671 
     42 H           3.016363   -1.427155   -1.129608 H         1 <1>         0.027403 
     43 H           2.573722   -1.821485    0.473768 H         1 <1>         0.027403 
     44 H           2.942600    1.529243   -3.294494 H         1 <1>         0.026823 
     45 H           4.587391    1.966515   -3.766274 H         1 <1>         0.026823 
     46 H           6.061333    3.603839    0.543244 H         1 <1>         0.220226 
     47 H           0.069066    2.974897   -0.031431 H         1 <1>         0.057198 
     48 H           4.513822    3.822048   -2.069298 H         1 <1>         0.030089 
     49 H           2.380373    5.533255   -1.106809 H         1 <1>         0.023268 
     50 H           1.710143    4.676286    0.283146 H         1 <1>         0.023268 
     51 H           3.470035    4.767565    0.070719 H         1 <1>         0.023268 
     52 H           0.065164    0.156105   -2.348882 H         1 <1>         0.023829 
     53 H           1.744674   -0.215373   -2.605152 H         1 <1>         0.023829 
     54 H           0.649297   -1.524873   -2.252661 H         1 <1>         0.023829 
     55 H          -1.824054    1.581064   -0.993430 H         1 <1>         0.031042 
     56 H          -1.812428    1.778448    0.749613 H         1 <1>         0.031042 
     57 H           3.903805    4.241559   -4.420459 H         1 <1>         0.023250 
     58 H           2.949040    5.286653   -3.355052 H         1 <1>         0.023250 
     59 H           2.200679    3.844055   -4.089319 H         1 <1>         0.023250 
     60 H           0.762781   -2.958410    0.896586 H         1 <1>         0.027096 
     61 H          -0.162238   -2.772872   -0.596599 H         1 <1>         0.027096 
     62 H           1.456910   -0.842426    2.238578 H         1 <1>         0.023542 
     63 H          -0.190719   -0.909063    2.727601 H         1 <1>         0.023542 
     64 H           0.460776    0.616679    2.120445 H         1 <1>         0.023542 
     65 H          -1.222089   -2.910152    2.260139 H         1 <1>         0.026846 
     66 H          -1.347265   -4.094936    0.966158 H         1 <1>         0.026846 
     67 H          -4.173533    0.729991    0.462427 H         1 <1>         0.027149 
     68 H          -3.656115   -0.052733   -1.012917 H         1 <1>         0.027149 
     69 H          -3.711005    0.021042    2.610083 H         1 <1>         0.023525 
     70 H          -2.053360    0.499673    2.547663 H         1 <1>         0.023525 
     71 H          -2.464150   -1.123509    3.034193 H         1 <1>         0.023525 
     72 H          -5.117338   -1.774175   -0.936672 H         1 <1>         0.029037 
     73 H          -6.052560   -0.587052   -0.025953 H         1 <1>         0.029037 
     74 H          -6.115759   -2.824804    1.032441 H         1 <1>         0.059852 
     75 H          -5.101380   -4.953701    0.582357 H         1 <1>         0.023587 
     76 H          -3.375784   -5.048938    0.195419 H         1 <1>         0.023587 
     77 H          -4.453986   -4.047115   -0.793669 H         1 <1>         0.023587 
     78 H          -4.787410   -4.227989    2.909147 H         1 <1>         0.023587 
     79 H          -3.065442   -4.554847    2.657965 H         1 <1>         0.023587 
     80 H          -3.593021   -3.027058    3.391621 H         1 <1>         0.023587 
     81 H          -6.161650   -0.983754    2.466325 H         1 <1>         0.209800 
@<TRIPOS>BOND
     1    1    2 1    
     2    1    3 1    
     3    1    4 1    
     4    1    5 1    
     5    2    6 1    
     6    2    7 1    
     7    2   34 1    
     8    3    8 1    
     9    3   37 1    
    10    3   38 1    
    11    4    9 1    
    12    4   39 1    
    13    4   40 1    
    14    5   10 1    
    15    5   11 2    
    16    6   12 1    
    17    6   13 2    
    18    7   14 1    
    19    7   15 1    
    20    7   41 1    
    21    8   12 1    
    22    8   42 1    
    23    8   43 1    
    24    9   14 1    
    25    9   44 1    
    26    9   45 1    
    27   10   46 1    
    28   12   16 1    
    29   12   17 1    
    30   13   18 1    
    31   13   47 1    
    32   14   19 1    
    33   14   48 1    
    34   15   49 1    
    35   15   50 1    
    36   15   51 1    
    37   16   20 1    
    38   16   21 1    
    39   16   22 1    
    40   17   52 1    
    41   17   53 1    
    42   17   54 1    
    43   18   20 1    
    44   18   55 1    
    45   18   56 1    
    46   19   57 1    
    47   19   58 1    
    48   19   59 1    
    49   20   23 1    
    50   20   35 1    
    51   21   24 1    
    52   21   60 1    
    53   21   61 1    
    54   22   62 1    
    55   22   63 1    
    56   22   64 1    
    57   23   25 1    
    58   23   26 1    
    59   23   27 1    
    60   24   25 1    
    61   24   65 1    
    62   24   66 1    
    63   25   28 1    
    64   25   36 1    
    65   26   29 1    
    66   26   67 1    
    67   26   68 1    
    68   27   69 1    
    69   27   70 1    
    70   27   71 1    
    71   28   30 1    
    72   28   31 1    
    73   28   32 1    
    74   29   30 1    
    75   29   72 1    
    76   29   73 1    
    77   30   33 1    
    78   30   74 1    
    79   31   75 1    
    80   31   76 1    
    81   31   77 1    
    82   32   78 1    
    83   32   79 1    
    84   32   80 1    
    85   33   81 1    
@<TRIPOS>SUBSTRUCTURE
     1 ****        1 TEMP              0 ****  ****    0 ROOT 
@<TRIPOS>NORMAL
@<TRIPOS>FF_PBC
FORCE_FIELD_SETUP_FEATURE Force Field Setup information
v1.0  0 0.000000 0.000000 0.000000 0.000000 0.000000 0.000000 NONE 0 0 0 0 1 0 0 0 0 0 0 0 0
