@<TRIPOS>MOLECULE
MOL004934
   20    19     1     1     0
SMALL
GASTEIGER


@<TRIPOS>ATOM
      1 C           1.553639   -0.182928    0.084578 C.3       1 <1>        -0.055678 
      2 C           0.194605    0.571348    0.081477 C.3       1 <1>        -0.050958 
      3 C           2.703471    0.732657    0.582033 C.3       1 <1>        -0.065268 
      4 C          -0.971640   -0.237091   -0.564134 C.3       1 <1>        -0.046729 
      5 C          -1.269441   -1.559517    0.197001 C.3       1 <1>        -0.062665 
      6 C          -2.255179    0.639482   -0.611773 C.3       1 <1>        -0.062665 
      7 H           1.786965   -0.531898   -0.934896 H         1 <1>         0.026273 
      8 H           1.504703   -1.058734    0.750911 H         1 <1>         0.026273 
      9 H           0.324335    1.505663   -0.489336 H         1 <1>         0.026768 
     10 H          -0.071837    0.841201    1.116371 H         1 <1>         0.026768 
     11 H           2.495342    1.088536    1.603277 H         1 <1>         0.022978 
     12 H           2.817491    1.605439   -0.079717 H         1 <1>         0.022978 
     13 H           3.654683    0.176957    0.591672 H         1 <1>         0.022978 
     14 H          -0.695449   -0.489088   -1.603512 H         1 <1>         0.029548 
     15 H          -2.155539   -2.055065   -0.229211 H         1 <1>         0.023233 
     16 H          -0.429256   -2.264880    0.118710 H         1 <1>         0.023233 
     17 H          -1.463246   -1.354012    1.260921 H         1 <1>         0.023233 
     18 H          -3.078196    0.097112   -1.102896 H         1 <1>         0.023233 
     19 H          -2.072306    1.565891   -1.178294 H         1 <1>         0.023233 
     20 H          -2.573245    0.909027    0.407119 H         1 <1>         0.023233 
@<TRIPOS>BOND
     1    1    2 1    
     2    1    3 1    
     3    1    7 1    
     4    1    8 1    
     5    2    4 1    
     6    2    9 1    
     7    2   10 1    
     8    3   11 1    
     9    3   12 1    
    10    3   13 1    
    11    4    5 1    
    12    4    6 1    
    13    4   14 1    
    14    5   15 1    
    15    5   16 1    
    16    5   17 1    
    17    6   18 1    
    18    6   19 1    
    19    6   20 1    
@<TRIPOS>SUBSTRUCTURE
     1 ****        1 TEMP              0 ****  ****    0 ROOT 
@<TRIPOS>NORMAL
@<TRIPOS>FF_PBC
FORCE_FIELD_SETUP_FEATURE Force Field Setup information
v1.0  0 0.000000 0.000000 0.000000 0.000000 0.000000 0.000000 NONE 0 0 0 0 1 0 0 0 0 0 0 0 0
