@<TRIPOS>MOLECULE
MOL013062
   24    25     1     1     0
SMALL
GASTEIGER


@<TRIPOS>ATOM
      1 O           0.006580   -2.535404    0.007006 O.2       1 <1>        -0.286654 
      2 C          -1.322348   -0.590598   -0.081943 C.ar      1 <1>         0.022255 
      3 C           1.327689   -0.584610    0.087971 C.ar      1 <1>         0.022255 
      4 C           0.004185   -1.314779    0.004645 C.2       1 <1>         0.193138 
      5 C          -1.431157    0.680389   -0.690666 C.ar      1 <1>        -0.050919 
      6 C           1.430759    0.669345    0.692601 C.ar      1 <1>        -0.050919 
      7 C          -2.537812   -1.234900    0.474150 C.ar      1 <1>        -0.050919 
      8 C           2.542091   -1.224538   -0.476165 C.ar      1 <1>        -0.050919 
      9 C          -2.741996    1.370029   -0.749448 C.ar      1 <1>        -0.061086 
     10 C           2.736098    1.369900    0.750754 C.ar      1 <1>        -0.061086 
     11 C          -3.780147   -0.583169    0.410870 C.ar      1 <1>        -0.061086 
     12 C           3.782628   -0.569879   -0.417683 C.ar      1 <1>        -0.061086 
     13 C          -3.884554    0.756428   -0.214003 C.ar      1 <1>        -0.061720 
     14 C           3.882170    0.768109    0.210650 C.ar      1 <1>        -0.061720 
     15 H          -0.561462    1.160890   -1.125645 H         1 <1>         0.062460 
     16 H           0.559697    1.143058    1.132454 H         1 <1>         0.062460 
     17 H          -2.466157   -2.215832    0.933011 H         1 <1>         0.062460 
     18 H           2.470701   -2.204468   -0.937225 H         1 <1>         0.062460 
     19 H          -2.815628    2.351040   -1.208072 H         1 <1>         0.061777 
     20 H           2.802710    2.349907    1.212626 H         1 <1>         0.061777 
     21 H          -4.666342   -1.058707    0.819173 H         1 <1>         0.061777 
     22 H           4.668877   -1.040645   -0.831260 H         1 <1>         0.061777 
     23 H          -4.845238    1.259906   -0.256253 H         1 <1>         0.061759 
     24 H           4.839458    1.278130    0.251550 H         1 <1>         0.061759 
@<TRIPOS>BOND
     1    1    4 2    
     2    4    2 1    
     3    2    5 2    
     4    2    7 1    
     5    4    3 1    
     6    3    6 2    
     7    3    8 1    
     8    5    9 1    
     9    5   15 1    
    10    6   10 1    
    11    6   16 1    
    12    7   11 2    
    13    7   17 1    
    14    8   12 2    
    15    8   18 1    
    16    9   13 2    
    17    9   19 1    
    18   10   14 2    
    19   10   20 1    
    20   11   13 1    
    21   11   21 1    
    22   12   14 1    
    23   12   22 1    
    24   13   23 1    
    25   14   24 1    
@<TRIPOS>SUBSTRUCTURE
     1 ****        1 TEMP              0 ****  ****    0 ROOT 
@<TRIPOS>NORMAL
@<TRIPOS>FF_PBC
FORCE_FIELD_SETUP_FEATURE Force Field Setup information
v1.0  0 0.000000 0.000000 0.000000 0.000000 0.000000 0.000000 NONE 0 0 0 0 1 0 0 0 0 0 0 0 0
