@<TRIPOS>MOLECULE
MOL002123
   30    31     1     1     0
SMALL
GASTEIGER


@<TRIPOS>ATOM
      1 C           0.725512    3.063479    0.443532 C.2       1 <1>         0.189784 
      2 C           1.596519    2.223154   -0.438416 C.3       1 <1>         0.116839 
      3 O           1.515580    0.818938   -0.134604 O.3       1 <1>        -0.336473 
      4 C           0.292229    0.288317    0.062397 C.2       1 <1>         0.083090 
      5 C          -0.940610    1.170314    0.224326 C.ar      1 <1>         0.044880 
      6 C          -0.705000    2.600685    0.528810 C.ar      1 <1>         0.031809 
      7 C          -2.332136    0.731428    0.119800 C.ar      1 <1>         0.082835 
      8 C          -3.427260    1.684549    0.442867 C.ar      1 <1>        -0.031236 
      9 C          -3.153393    3.004989    0.816586 C.ar      1 <1>        -0.058627 
     10 C          -1.754165    3.487756    0.850849 C.ar      1 <1>        -0.050376 
     11 C           0.222712   -1.047119    0.164995 C.2       1 <1>        -0.053269 
     12 C           1.450447   -1.917648    0.001438 C.3       1 <1>        -0.032284 
     13 C           1.116054   -3.378162   -0.409152 C.3       1 <1>        -0.052380 
     14 C           2.400765   -4.214159   -0.648420 C.3       1 <1>        -0.064997 
     15 O           1.129460    4.064418    1.012347 O.2       1 <1>        -0.289551 
     16 O          -2.639207   -0.570843   -0.272029 O.3       1 <1>        -0.359141 
     17 H           2.649003    2.529486   -0.346509 H         1 <1>         0.064807 
     18 H           1.281654    2.377948   -1.481005 H         1 <1>         0.064807 
     19 H          -4.460293    1.354935    0.400353 H         1 <1>         0.064340 
     20 H          -3.964736    3.680359    1.073158 H         1 <1>         0.061856 
     21 H          -1.543744    4.524384    1.100303 H         1 <1>         0.062472 
     22 H          -0.696949   -1.578087    0.391455 H         1 <1>         0.059773 
     23 H           1.987820   -1.926740    0.963074 H         1 <1>         0.030812 
     24 H           2.118106   -1.488469   -0.762244 H         1 <1>         0.030812 
     25 H           0.516067   -3.368803   -1.334510 H         1 <1>         0.026559 
     26 H           0.519281   -3.856117    0.384690 H         1 <1>         0.026559 
     27 H           2.136968   -5.248811   -0.916179 H         1 <1>         0.022987 
     28 H           3.023321   -4.237209    0.258365 H         1 <1>         0.022987 
     29 H           2.994161   -3.784694   -1.470793 H         1 <1>         0.022987 
     30 H          -3.559270   -0.707698   -0.468766 H         1 <1>         0.217339 
@<TRIPOS>BOND
     1    1    2 1    
     2    1    6 1    
     3    1   15 2    
     4    2    3 1    
     5    2   17 1    
     6    2   18 1    
     7    3    4 1    
     8    4    5 1    
     9    4   11 2    
    10    5    6 1    
    11    5    7 2    
    12    6   10 2    
    13    7    8 1    
    14    7   16 1    
    15    8    9 2    
    16    8   19 1    
    17    9   10 1    
    18    9   20 1    
    19   10   21 1    
    20   11   12 1    
    21   11   22 1    
    22   12   13 1    
    23   12   23 1    
    24   12   24 1    
    25   13   14 1    
    26   13   25 1    
    27   13   26 1    
    28   14   27 1    
    29   14   28 1    
    30   14   29 1    
    31   16   30 1    
@<TRIPOS>SUBSTRUCTURE
     1 ****        1 TEMP              0 ****  ****    0 ROOT 
@<TRIPOS>NORMAL
@<TRIPOS>FF_PBC
FORCE_FIELD_SETUP_FEATURE Force Field Setup information
v1.0  0 0.000000 0.000000 0.000000 0.000000 0.000000 0.000000 NONE 0 0 0 0 1 0 0 0 0 0 0 0 0
