@<TRIPOS>MOLECULE
MOL000908
   39    39     1     1     0
SMALL
GASTEIGER


@<TRIPOS>ATOM
      1 C          -1.223841   -0.545542    0.532012 C.3       1 <1>        -0.007811 
      2 C          -0.494062    0.825366    0.316454 C.3       1 <1>        -0.011061 
      3 C           0.912339    0.661201   -0.336226 C.3       1 <1>        -0.039223 
      4 C           1.810782   -0.311061    0.475929 C.3       1 <1>        -0.019820 
      5 C           1.115199   -1.691396    0.596245 C.3       1 <1>        -0.045719 
      6 C          -0.270388   -1.533717    1.277571 C.3       1 <1>        -0.043098 
      7 C          -2.395232   -0.322094    1.482831 C.2       1 <1>        -0.084621 
      8 C          -3.689812   -0.587625    1.256356 C.2       1 <1>        -0.102094 
      9 C          -1.696179   -1.169246   -0.817206 C.3       1 <1>        -0.055559 
     10 C           3.216458   -0.478082   -0.082636 C.2       1 <1>        -0.076591 
     11 C           4.282484   -0.554229    0.727795 C.2       1 <1>        -0.099446 
     12 C           3.372435   -0.562506   -1.586625 C.3       1 <1>        -0.043777 
     13 C          -1.375682    1.853347   -0.384432 C.2       1 <1>        -0.075785 
     14 C          -2.312187    2.538424    0.288715 C.2       1 <1>        -0.099420 
     15 C          -1.161432    2.096110   -1.866822 C.3       1 <1>        -0.043750 
     16 H          -0.283565    1.238839    1.317739 H         1 <1>         0.035389 
     17 H           1.415618    1.641607   -0.377644 H         1 <1>         0.027693 
     18 H           0.812768    0.287954   -1.362987 H         1 <1>         0.027693 
     19 H           1.895602    0.109027    1.493004 H         1 <1>         0.034560 
     20 H           1.744863   -2.358252    1.209629 H         1 <1>         0.027124 
     21 H           1.009058   -2.161306   -0.392086 H         1 <1>         0.027124 
     22 H          -0.750744   -2.522244    1.364372 H         1 <1>         0.027384 
     23 H          -0.084177   -1.172079    2.302803 H         1 <1>         0.027384 
     24 H          -2.163875    0.100081    2.463263 H         1 <1>         0.057195 
     25 H          -4.428275   -0.375284    2.030612 H         1 <1>         0.053192 
     26 H          -4.085508   -1.011993    0.336741 H         1 <1>         0.053192 
     27 H          -2.156565   -2.153561   -0.642447 H         1 <1>         0.023821 
     28 H          -0.875676   -1.317415   -1.529733 H         1 <1>         0.023821 
     29 H          -2.442165   -0.523673   -1.302193 H         1 <1>         0.023821 
     30 H           4.183479   -0.503420    1.811685 H         1 <1>         0.053440 
     31 H           5.292757   -0.671534    0.337110 H         1 <1>         0.053440 
     32 H           4.389628   -0.863186   -1.879870 H         1 <1>         0.027436 
     33 H           3.172453    0.420185   -2.038569 H         1 <1>         0.027436 
     34 H           2.675526   -1.301140   -2.008153 H         1 <1>         0.027436 
     35 H          -2.478511    2.392503    1.354693 H         1 <1>         0.053441 
     36 H          -2.947901    3.276215   -0.199430 H         1 <1>         0.053441 
     37 H          -0.199401    2.605290   -2.023039 H         1 <1>         0.027437 
     38 H          -1.161303    1.159758   -2.440597 H         1 <1>         0.027437 
     39 H          -1.945997    2.737683   -2.295492 H         1 <1>         0.027437 
@<TRIPOS>BOND
     1    1    2 1    
     2    1    6 1    
     3    1    7 1    
     4    1    9 1    
     5    2    3 1    
     6    2   13 1    
     7    2   16 1    
     8    3    4 1    
     9    3   17 1    
    10    3   18 1    
    11    4    5 1    
    12    4   10 1    
    13    4   19 1    
    14    5    6 1    
    15    5   20 1    
    16    5   21 1    
    17    6   22 1    
    18    6   23 1    
    19    7    8 2    
    20    7   24 1    
    21    8   25 1    
    22    8   26 1    
    23    9   27 1    
    24    9   28 1    
    25    9   29 1    
    26   10   11 2    
    27   10   12 1    
    28   11   30 1    
    29   11   31 1    
    30   12   32 1    
    31   12   33 1    
    32   12   34 1    
    33   13   14 2    
    34   13   15 1    
    35   14   35 1    
    36   14   36 1    
    37   15   37 1    
    38   15   38 1    
    39   15   39 1    
@<TRIPOS>SUBSTRUCTURE
     1 ****        1 TEMP              0 ****  ****    0 ROOT 
@<TRIPOS>NORMAL
@<TRIPOS>FF_PBC
FORCE_FIELD_SETUP_FEATURE Force Field Setup information
v1.0  0 0.000000 0.000000 0.000000 0.000000 0.000000 0.000000 NONE 0 0 0 0 1 0 0 0 0 0 0 0 0
