@<TRIPOS>MOLECULE
MOL001867
   19    19     1     1     0
SMALL
GASTEIGER


@<TRIPOS>ATOM
      1 O           1.548421   -2.236499    0.472920 O.3       1 <1>        -0.357255 
      2 O           1.886265    3.697257   -0.910120 O.2       1 <1>        -0.295699 
      3 C           2.307278    2.577541   -0.669102 C.2       1 <1>         0.150280 
      4 C           1.354665    1.440205   -0.371866 C.ar      1 <1>         0.016770 
      5 C           1.886111    0.087635   -0.077545 C.ar      1 <1>        -0.019192 
      6 C           1.018103   -0.974976    0.199063 C.ar      1 <1>         0.103095 
      7 C          -0.452095   -0.763382    0.201253 C.ar      1 <1>         0.105441 
      8 O          -1.283148   -1.858336    0.482556 O.3       1 <1>        -0.345349 
      9 C          -2.715634   -1.746773    0.472297 C.3       1 <1>         0.043135 
     10 C          -0.964920    0.529379   -0.079209 C.ar      1 <1>        -0.028504 
     11 C          -0.036931    1.648486   -0.370609 C.ar      1 <1>        -0.048939 
     12 H           0.856307   -2.867877    0.644377 H         1 <1>         0.217422 
     13 H           3.383972    2.412846   -0.672247 H         1 <1>         0.108139 
     14 H           2.955785   -0.089787   -0.074111 H         1 <1>         0.065091 
     15 H          -3.130945   -2.737020    0.710582 H         1 <1>         0.052871 
     16 H          -3.062986   -1.033752    1.235490 H         1 <1>         0.052871 
     17 H          -3.081279   -1.447930   -0.522033 H         1 <1>         0.052871 
     18 H          -2.028857    0.729806   -0.087951 H         1 <1>         0.064430 
     19 H          -0.440312    2.633275   -0.583946 H         1 <1>         0.062522 
@<TRIPOS>BOND
     1    6    1 1    
     2    1   12 1    
     3    3    2 2    
     4    4    3 1    
     5    3   13 1    
     6    5    4 1    
     7    4   11 2    
     8    5    6 2    
     9    5   14 1    
    10    6    7 1    
    11    7    8 1    
    12    7   10 2    
    13    8    9 1    
    14    9   15 1    
    15    9   16 1    
    16    9   17 1    
    17   10   11 1    
    18   10   18 1    
    19   11   19 1    
@<TRIPOS>SUBSTRUCTURE
     1 ****        2 TEMP              0 ****  ****    0 ROOT 
@<TRIPOS>NORMAL
@<TRIPOS>FF_PBC
FORCE_FIELD_SETUP_FEATURE Force Field Setup information
v1.0  0 0.000000 0.000000 0.000000 0.000000 0.000000 0.000000 NONE 0 0 0 0 1 0 0 0 0 0 0 0 0
