@<TRIPOS>MOLECULE
MOL004958
   68    72     1     1     0
SMALL
GASTEIGER


@<TRIPOS>ATOM
      1 O          -1.267760    1.728172    1.006552 O.3       1 <1>        -0.361023 
      2 O           4.551651    0.463029    1.238692 O.3       1 <1>        -0.366510 
      3 O          -0.258730    1.343063   -2.546551 O.3       1 <1>        -0.386221 
      4 O          -2.831242    2.691327   -2.775912 O.3       1 <1>        -0.386477 
      5 O          -3.639116    4.233640   -0.420382 O.3       1 <1>        -0.386490 
      6 O           4.453915   -2.250366   -1.330540 O.3       1 <1>        -0.386222 
      7 O          -1.619197   -1.071324    0.158343 O.3       1 <1>        -0.307351 
      8 O           6.973913   -0.861615   -1.935773 O.3       1 <1>        -0.386489 
      9 O           2.534434    1.555122    0.152733 O.3       1 <1>        -0.358948 
     10 O           6.442378    1.678554   -0.702914 O.3       1 <1>        -0.386861 
     11 O          -1.999786    3.112894    3.385860 O.3       1 <1>        -0.392367 
     12 O           2.722381   -3.325768    0.814679 O.3       1 <1>        -0.358595 
     13 O           0.326242   -4.563540    0.746994 O.2       1 <1>        -0.287017 
     14 O          -8.051759   -1.569124   -0.386483 O.3       1 <1>        -0.359832 
     15 C          -0.388556    1.531877   -0.118639 C.3       1 <1>         0.117298 
     16 C          -1.182576    1.491440   -1.451833 C.3       1 <1>         0.113849 
     17 C          -2.006270    2.797494   -1.599673 C.3       1 <1>         0.112059 
     18 C          -2.882835    3.009995   -0.335222 C.3       1 <1>         0.111744 
     19 C          -1.998348    2.970185    0.939953 C.3       1 <1>         0.110816 
     20 C           0.418469    0.247884    0.128659 C.ar      1 <1>         0.045039 
     21 C           4.170240   -0.802378    0.654516 C.3       1 <1>         0.116816 
     22 C           4.817916   -0.986081   -0.742629 C.3       1 <1>         0.113823 
     23 C           2.646096   -0.856485    0.498813 C.ar      1 <1>         0.044254 
     24 C           6.358180   -0.827676   -0.634246 C.3       1 <1>         0.111706 
     25 C           1.897790    0.315369    0.262053 C.ar      1 <1>         0.088992 
     26 C           6.720858    0.502917    0.083283 C.3       1 <1>         0.106782 
     27 C          -0.227430   -0.992293    0.249625 C.ar      1 <1>         0.104556 
     28 C          -2.852991    3.081743    2.227802 C.3       1 <1>         0.072938 
     29 C           5.975004    0.584449    1.440113 C.3       1 <1>         0.077002 
     30 C           1.963057   -2.168617    0.600779 C.ar      1 <1>         0.094068 
     31 C           0.565181   -2.217336    0.475220 C.ar      1 <1>         0.082655 
     32 C          -0.230155   -3.493499    0.556844 C.2       1 <1>         0.193529 
     33 C          -2.303354   -2.226384    0.204683 C.2       1 <1>         0.093878 
     34 C          -1.686213   -3.401353    0.398618 C.2       1 <1>         0.016919 
     35 C          -3.804972   -2.118322    0.033822 C.ar      1 <1>         0.005751 
     36 C          -4.595063   -3.140854   -0.523759 C.ar      1 <1>        -0.049682 
     37 C          -4.460705   -0.860150    0.468291 C.ar      1 <1>        -0.049682 
     38 C          -6.060905   -2.963165   -0.666545 C.ar      1 <1>        -0.031304 
     39 C          -5.841696   -0.689877    0.324928 C.ar      1 <1>        -0.031304 
     40 C          -6.674124   -1.766822   -0.257975 C.ar      1 <1>         0.072619 
     41 H           0.315077    2.377017   -0.182059 H         1 <1>         0.067491 
     42 H          -1.895384    0.651728   -1.448616 H         1 <1>         0.064945 
     43 H          -1.303853    3.641481   -1.713528 H         1 <1>         0.064684 
     44 H          -3.610647    2.184592   -0.287269 H         1 <1>         0.064671 
     45 H          -1.299369    3.824327    0.938123 H         1 <1>         0.064591 
     46 H           4.481213   -1.615078    1.331062 H         1 <1>         0.067476 
     47 H           4.431024   -0.211884   -1.423178 H         1 <1>         0.064945 
     48 H           6.750218   -1.664066   -0.028507 H         1 <1>         0.064672 
     49 H           7.810415    0.515678    0.255186 H         1 <1>         0.064298 
     50 H          -3.550079    2.229892    2.292437 H         1 <1>         0.058369 
     51 H          -3.441343    4.012856    2.216784 H         1 <1>         0.058369 
     52 H           6.338102   -0.189180    2.136927 H         1 <1>         0.058659 
     53 H           6.169843    1.568686    1.894070 H         1 <1>         0.058659 
     54 H          -0.707147    1.338732   -3.387940 H         1 <1>         0.210016 
     55 H          -3.379414    3.460879   -2.901258 H         1 <1>         0.210004 
     56 H          -3.094697    5.012822   -0.473890 H         1 <1>         0.210004 
     57 H           4.683998   -3.001183   -0.791120 H         1 <1>         0.210016 
     58 H           6.757120   -1.653514   -2.418449 H         1 <1>         0.210004 
     59 H           3.325588    1.603552    0.683011 H         1 <1>         0.217342 
     60 H           5.515942    1.816255   -0.861865 H         1 <1>         0.209989 
     61 H          -2.235561   -4.338592    0.457367 H         1 <1>         0.068219 
     62 H          -1.445066    2.338689    3.435255 H         1 <1>         0.209508 
     63 H           2.207966   -4.126434    0.861422 H         1 <1>         0.217355 
     64 H          -4.149534   -4.067863   -0.865824 H         1 <1>         0.062503 
     65 H          -3.863282   -0.066707    0.904559 H         1 <1>         0.062503 
     66 H          -6.651232   -3.767236   -1.092879 H         1 <1>         0.064339 
     67 H          -6.314549    0.233720    0.641420 H         1 <1>         0.064339 
     68 H          -8.516971   -2.292193   -0.791718 H         1 <1>         0.217313 
@<TRIPOS>BOND
     1   15    1 1    
     2    1   19 1    
     3   21    2 1    
     4    2   29 1    
     5   16    3 1    
     6    3   54 1    
     7   17    4 1    
     8    4   55 1    
     9   18    5 1    
    10    5   56 1    
    11   22    6 1    
    12    6   57 1    
    13    7   27 1    
    14   33    7 1    
    15   24    8 1    
    16    8   58 1    
    17   25    9 1    
    18    9   59 1    
    19   26   10 1    
    20   10   60 1    
    21   28   11 1    
    22   11   62 1    
    23   30   12 1    
    24   12   63 1    
    25   32   13 2    
    26   40   14 1    
    27   14   68 1    
    28   15   16 1    
    29   20   15 1    
    30   15   41 1    
    31   16   17 1    
    32   16   42 1    
    33   17   18 1    
    34   17   43 1    
    35   19   18 1    
    36   18   44 1    
    37   19   28 1    
    38   19   45 1    
    39   20   25 1    
    40   27   20 2    
    41   21   22 1    
    42   23   21 1    
    43   21   46 1    
    44   22   24 1    
    45   22   47 1    
    46   25   23 2    
    47   30   23 1    
    48   24   26 1    
    49   24   48 1    
    50   29   26 1    
    51   26   49 1    
    52   27   31 1    
    53   28   50 1    
    54   28   51 1    
    55   29   52 1    
    56   29   53 1    
    57   31   30 2    
    58   32   31 1    
    59   34   32 1    
    60   33   34 2    
    61   35   33 1    
    62   34   61 1    
    63   36   35 2    
    64   35   37 1    
    65   38   36 1    
    66   36   64 1    
    67   37   39 2    
    68   37   65 1    
    69   38   40 2    
    70   38   66 1    
    71   39   40 1    
    72   39   67 1    
@<TRIPOS>SUBSTRUCTURE
     1 ****        2 TEMP              0 ****  ****    0 ROOT 
@<TRIPOS>NORMAL
@<TRIPOS>FF_PBC
FORCE_FIELD_SETUP_FEATURE Force Field Setup information
v1.0  0 0.000000 0.000000 0.000000 0.000000 0.000000 0.000000 NONE 0 0 0 0 1 0 0 0 0 0 0 0 0
