@<TRIPOS>MOLECULE
MOL000552
   41    43     1     1     0
SMALL
GASTEIGER


@<TRIPOS>ATOM
      1 C          -0.305932    5.198463   -0.129456 C.3       1 <1>         0.043244 
      2 O          -0.681867    3.822113    0.031768 O.3       1 <1>        -0.342879 
      3 C           0.234014    2.754756    0.036838 C.ar      1 <1>         0.138848 
      4 C          -0.305481    1.381924    0.213120 C.ar      1 <1>         0.140841 
      5 O          -1.697943    1.250329    0.365227 O.3       1 <1>        -0.342828 
      6 C          -2.375144   -0.005434    0.527110 C.3       1 <1>         0.043244 
      7 C           0.591929    0.231871    0.222382 C.ar      1 <1>         0.139625 
      8 O           0.063354   -1.058619    0.385435 O.3       1 <1>        -0.342861 
      9 C           0.757869   -2.240706   -0.040274 C.3       1 <1>         0.043244 
     10 C           1.648567    2.950730   -0.121507 C.ar      1 <1>         0.118646 
     11 C           2.542563    1.766298   -0.099934 C.ar      1 <1>         0.087039 
     12 C           2.055515    0.457523    0.060427 C.ar      1 <1>         0.128906 
     13 C           4.034756    1.914401   -0.246911 C.2       1 <1>         0.193681 
     14 C           4.856423    0.704741   -0.184709 C.2       1 <1>         0.017006 
     15 C           4.283880   -0.494547   -0.023870 C.2       1 <1>         0.096433 
     16 O           2.950236   -0.622174    0.072427 O.3       1 <1>        -0.305039 
     17 C           5.133126   -1.745849    0.055257 C.ar      1 <1>         0.035278 
     18 C           4.686700   -2.984994   -0.629490 C.ar      1 <1>         0.082185 
     19 O           3.496968   -2.976818   -1.362289 O.3       1 <1>        -0.359161 
     20 C           6.359891   -1.753874    0.787469 C.ar      1 <1>        -0.049637 
     21 C           7.178156   -2.986879    0.863277 C.ar      1 <1>        -0.060964 
     22 C           6.749607   -4.152818    0.225940 C.ar      1 <1>        -0.059290 
     23 C           5.479053   -4.160859   -0.536725 C.ar      1 <1>        -0.031275 
     24 O           4.538210    3.014431   -0.409732 O.2       1 <1>        -0.287015 
     25 O           2.182340    4.233468   -0.292690 O.3       1 <1>        -0.356587 
     26 H          -1.226903    5.798297   -0.091051 H         1 <1>         0.052872 
     27 H           0.352751    5.529583    0.687696 H         1 <1>         0.052872 
     28 H           0.173019    5.368496   -1.105637 H         1 <1>         0.052872 
     29 H          -3.450100    0.209806    0.613863 H         1 <1>         0.052872 
     30 H          -2.053602   -0.516228    1.447453 H         1 <1>         0.052872 
     31 H          -2.225512   -0.654180   -0.349326 H         1 <1>         0.052872 
     32 H           0.047315   -3.078083    0.014666 H         1 <1>         0.052872 
     33 H           1.093263   -2.135448   -1.082904 H         1 <1>         0.052872 
     34 H           1.605377   -2.480310    0.618266 H         1 <1>         0.052872 
     35 H           5.934981    0.821557   -0.280289 H         1 <1>         0.068220 
     36 H           3.321736   -3.781986   -1.835722 H         1 <1>         0.217339 
     37 H           6.702025   -0.863137    1.303038 H         1 <1>         0.062505 
     38 H           8.111298   -2.981607    1.418057 H         1 <1>         0.061779 
     39 H           7.347625   -5.056890    0.286077 H         1 <1>         0.061837 
     40 H           5.164871   -5.076693   -1.025779 H         1 <1>         0.064340 
     41 H           3.128964    4.255747   -0.398897 H         1 <1>         0.217446 
@<TRIPOS>BOND
     1    1    2 1    
     2    1   26 1    
     3    1   27 1    
     4    1   28 1    
     5    2    3 1    
     6    3    4 1    
     7    3   10 2    
     8    4    5 1    
     9    4    7 2    
    10    5    6 1    
    11    6   29 1    
    12    6   30 1    
    13    6   31 1    
    14    7    8 1    
    15    7   12 1    
    16    8    9 1    
    17    9   32 1    
    18    9   33 1    
    19    9   34 1    
    20   10   11 1    
    21   10   25 1    
    22   11   12 2    
    23   11   13 1    
    24   12   16 1    
    25   13   14 1    
    26   13   24 2    
    27   14   15 2    
    28   14   35 1    
    29   15   16 1    
    30   15   17 1    
    31   17   18 1    
    32   17   20 2    
    33   18   19 1    
    34   18   23 2    
    35   19   36 1    
    36   20   21 1    
    37   20   37 1    
    38   21   22 2    
    39   21   38 1    
    40   22   23 1    
    41   22   39 1    
    42   23   40 1    
    43   25   41 1    
@<TRIPOS>SUBSTRUCTURE
     1 ****        1 TEMP              0 ****  ****    0 ROOT 
@<TRIPOS>NORMAL
@<TRIPOS>FF_PBC
FORCE_FIELD_SETUP_FEATURE Force Field Setup information
v1.0  0 0.000000 0.000000 0.000000 0.000000 0.000000 0.000000 NONE 0 0 0 0 1 0 0 0 0 0 0 0 0
