@<TRIPOS>MOLECULE
MOL012987
   82    87     1     1     0
SMALL
GASTEIGER


@<TRIPOS>ATOM
      1 C          -4.504836   -1.592546   -2.829356 C.3       1 <1>        -0.025831 
      2 C          -5.354836   -2.524007   -1.934796 C.3       1 <1>         0.060637 
      3 C          -4.449731   -3.226333   -0.853899 C.3       1 <1>        -0.005589 
      4 C          -3.154771   -2.367010   -0.539723 C.3       1 <1>        -0.027845 
      5 C          -3.295693   -0.802438   -0.596680 C.3       1 <1>        -0.025246 
      6 C          -3.840152   -0.428782   -2.032540 C.3       1 <1>        -0.044730 
      7 C          -2.382101   -2.811928    0.741470 C.3       1 <1>        -0.048617 
      8 C          -0.959777   -2.189653    0.776262 C.3       1 <1>        -0.046476 
      9 C          -0.907492   -0.626021    0.750204 C.3       1 <1>        -0.020557 
     10 C          -1.853381   -0.142494   -0.411707 C.3       1 <1>        -0.029356 
     11 C           0.583938   -0.118279    0.467106 C.3       1 <1>         0.008081 
     12 C           0.700600    1.092764   -0.526682 C.3       1 <1>        -0.022254 
     13 C          -0.454157    2.088073   -0.261888 C.3       1 <1>        -0.048816 
     14 C          -1.837787    1.422210   -0.533443 C.3       1 <1>        -0.048911 
     15 C           1.385191    0.411868    1.682660 C.3       1 <1>         0.010330 
     16 C           2.639665    0.694757    0.850686 C.3       1 <1>         0.176956 
     17 C           2.191534    1.557824   -0.351111 C.3       1 <1>         0.045172 
     18 O           3.694800    1.247889    1.646878 O.3       1 <1>        -0.340889 
     19 C           4.763735    1.745647    0.834478 C.3       1 <1>         0.082911 
     20 C           4.262694    2.945599   -0.024616 C.3       1 <1>         0.006275 
     21 C           2.704776    3.022644   -0.166704 C.3       1 <1>         0.073921 
     22 C           8.206709    2.556252    2.539156 C.3       1 <1>        -0.043969 
     23 C           7.186084    2.129906    1.506471 C.2       1 <1>        -0.077208 
     24 C           5.869185    2.179036    1.768852 C.2       1 <1>        -0.056719 
     25 C           7.755412    1.651758    0.188108 C.3       1 <1>        -0.043969 
     26 C           2.409540    3.960913   -1.377062 C.3       1 <1>        -0.035536 
     27 O           2.243299    3.633629    1.051539 O.3       1 <1>        -0.388286 
     28 C          -1.380067   -0.109302    2.151002 C.3       1 <1>        -0.058701 
     29 C          -4.355209   -0.303366    0.451311 C.3       1 <1>        -0.059019 
     30 O          -6.472340   -1.750377   -1.458503 O.3       1 <1>        -0.391248 
     31 C          -4.010521   -4.609609   -1.456428 C.3       1 <1>        -0.057190 
     32 H          -2.463641   -2.597813   -1.366273 H         1 <1>         0.031210 
     33 O           2.914568   -0.601563    0.313272 O.3       1 <1>        -0.347589 
     34 C           1.637780   -1.177224   -0.012004 C.3       1 <1>         0.057503 
     35 C          -5.282124   -3.581771    0.419439 C.3       1 <1>        -0.057190 
     36 H          -5.145781   -1.167176   -3.620965 H         1 <1>         0.029037 
     37 H          -3.737940   -2.200967   -3.337552 H         1 <1>         0.029037 
     38 H          -5.810463   -3.276904   -2.604406 H         1 <1>         0.059852 
     39 H          -4.551721    0.410481   -1.956874 H         1 <1>         0.027149 
     40 H          -3.046174   -0.083233   -2.713289 H         1 <1>         0.027149 
     41 H          -2.235365   -3.902335    0.741145 H         1 <1>         0.026846 
     42 H          -2.928890   -2.583948    1.663618 H         1 <1>         0.026846 
     43 H          -0.468859   -2.598293   -0.120398 H         1 <1>         0.027088 
     44 H          -0.426410   -2.568429    1.664255 H         1 <1>         0.027088 
     45 H          -1.305304   -0.516513   -1.290515 H         1 <1>         0.031156 
     46 H           0.570291    0.772407   -1.575035 H         1 <1>         0.031229 
     47 H          -0.379059    2.965832   -0.914946 H         1 <1>         0.026833 
     48 H          -0.415880    2.457911    0.768191 H         1 <1>         0.026833 
     49 H          -2.536643    1.911321    0.155981 H         1 <1>         0.026837 
     50 H          -2.161409    1.702682   -1.547795 H         1 <1>         0.026837 
     51 H           1.603002   -0.343422    2.455344 H         1 <1>         0.032341 
     52 H           1.026908    1.331558    2.164277 H         1 <1>         0.032341 
     53 H           2.759920    1.197577   -1.227493 H         1 <1>         0.038356 
     54 H           5.106556    0.904668    0.207245 H         1 <1>         0.064228 
     55 H           4.741564    2.868992   -1.014410 H         1 <1>         0.032111 
     56 H           4.600367    3.894393    0.423802 H         1 <1>         0.032111 
     57 H           7.756322    2.817948    3.508996 H         1 <1>         0.027428 
     58 H           8.759708    3.434063    2.172393 H         1 <1>         0.027428 
     59 H           8.920145    1.735265    2.707216 H         1 <1>         0.027428 
     60 H           5.527050    2.561182    2.730879 H         1 <1>         0.059695 
     61 H           7.934439    0.567673    0.246065 H         1 <1>         0.027428 
     62 H           7.088668    1.860466   -0.660347 H         1 <1>         0.027428 
     63 H           8.713351    2.151290   -0.023599 H         1 <1>         0.027428 
     64 H           1.355572    4.243602   -1.455727 H         1 <1>         0.025733 
     65 H           2.978950    4.896643   -1.267161 H         1 <1>         0.025733 
     66 H           2.708626    3.481769   -2.321827 H         1 <1>         0.025733 
     67 H           1.328692    3.881778    1.043308 H         1 <1>         0.210163 
     68 H          -2.364235   -0.471719    2.440805 H         1 <1>         0.023534 
     69 H          -0.710892   -0.462937    2.947159 H         1 <1>         0.023534 
     70 H          -1.425484    0.983621    2.209714 H         1 <1>         0.023534 
     71 H          -4.278414   -0.762980    1.436957 H         1 <1>         0.023525 
     72 H          -4.346100    0.779739    0.597176 H         1 <1>         0.023525 
     73 H          -5.373182   -0.513487    0.122135 H         1 <1>         0.023525 
     74 H          -7.138680   -2.250276   -0.999008 H         1 <1>         0.209800 
     75 H          -3.359340   -5.178779   -0.780187 H         1 <1>         0.023587 
     76 H          -4.884114   -5.248383   -1.659155 H         1 <1>         0.023587 
     77 H          -3.471958   -4.483204   -2.407627 H         1 <1>         0.023587 
     78 H           1.657115   -2.107266    0.574398 H         1 <1>         0.056658 
     79 H           1.561833   -1.423553   -1.082661 H         1 <1>         0.056658 
     80 H          -4.702033   -4.199611    1.119544 H         1 <1>         0.023587 
     81 H          -6.171533   -4.167133    0.141658 H         1 <1>         0.023587 
     82 H          -5.627014   -2.697470    0.966141 H         1 <1>         0.023587 
@<TRIPOS>BOND
     1    1    2 1    
     2    6    1 1    
     3    1   36 1    
     4    1   37 1    
     5    3    2 1    
     6    2   30 1    
     7    2   38 1    
     8    4    3 1    
     9    3   31 1    
    10    3   35 1    
    11    5    4 1    
    12    7    4 1    
    13    4   32 1    
    14    5    6 1    
    15   10    5 1    
    16    5   29 1    
    17    6   39 1    
    18    6   40 1    
    19    8    7 1    
    20    7   41 1    
    21    7   42 1    
    22    9    8 1    
    23    8   43 1    
    24    8   44 1    
    25    9   10 1    
    26   11    9 1    
    27    9   28 1    
    28   14   10 1    
    29   10   45 1    
    30   12   11 1    
    31   15   11 1    
    32   11   34 1    
    33   12   13 1    
    34   17   12 1    
    35   12   46 1    
    36   13   14 1    
    37   13   47 1    
    38   13   48 1    
    39   14   49 1    
    40   14   50 1    
    41   16   15 1    
    42   15   51 1    
    43   15   52 1    
    44   16   17 1    
    45   18   16 1    
    46   16   33 1    
    47   21   17 1    
    48   17   53 1    
    49   19   18 1    
    50   19   20 1    
    51   24   19 1    
    52   19   54 1    
    53   20   21 1    
    54   20   55 1    
    55   20   56 1    
    56   21   26 1    
    57   21   27 1    
    58   23   22 1    
    59   22   57 1    
    60   22   58 1    
    61   22   59 1    
    62   23   24 2    
    63   23   25 1    
    64   24   60 1    
    65   25   61 1    
    66   25   62 1    
    67   25   63 1    
    68   26   64 1    
    69   26   65 1    
    70   26   66 1    
    71   27   67 1    
    72   28   68 1    
    73   28   69 1    
    74   28   70 1    
    75   29   71 1    
    76   29   72 1    
    77   29   73 1    
    78   30   74 1    
    79   31   75 1    
    80   31   76 1    
    81   31   77 1    
    82   33   34 1    
    83   34   78 1    
    84   34   79 1    
    85   35   80 1    
    86   35   81 1    
    87   35   82 1    
@<TRIPOS>SUBSTRUCTURE
     1 ****       22 TEMP              0 ****  ****    0 ROOT 
@<TRIPOS>NORMAL
@<TRIPOS>FF_PBC
FORCE_FIELD_SETUP_FEATURE Force Field Setup information
v1.0  0 0.000000 0.000000 0.000000 0.000000 0.000000 0.000000 NONE 0 0 0 0 1 0 0 0 0 0 0 0 0
