@<TRIPOS>MOLECULE
MOL002528
   33    33     1     1     0
SMALL
GASTEIGER


@<TRIPOS>ATOM
      1 O           0.410200    0.703312   -1.025865 O.2       1 <1>        -0.214566 
      2 C          -0.204026    1.718785   -0.298190 C.ar      1 <1>         0.332682 
      3 C          -1.571342    1.659788   -0.345930 C.ar      1 <1>         0.046274 
      4 C          -1.877078    0.492485   -1.181624 C.ar      1 <1>         0.046274 
      5 C          -0.660543   -0.021861   -1.540106 C.ar      1 <1>         0.332682 
      6 C          -0.478619   -1.263912   -2.414993 C.3       1 <1>         0.063413 
      7 C          -0.808472   -2.542537   -1.601002 C.3       1 <1>        -0.041151 
      8 C          -0.607792   -3.824225   -2.453979 C.3       1 <1>        -0.055337 
      9 C          -0.947431   -5.097954   -1.636702 C.3       1 <1>        -0.065263 
     10 C           0.588637    2.780600    0.467161 C.3       1 <1>         0.063413 
     11 C           0.899767    2.277850    1.901243 C.3       1 <1>        -0.041151 
     12 C           1.719147    3.326759    2.700990 C.3       1 <1>        -0.055337 
     13 C           2.037652    2.820372    4.131947 C.3       1 <1>        -0.065263 
     14 H          -2.279137    2.328952    0.131707 H         1 <1>         0.071029 
     15 H          -2.858006    0.117677   -1.454057 H         1 <1>         0.071029 
     16 H           0.566400   -1.294466   -2.761937 H         1 <1>         0.039967 
     17 H          -1.136468   -1.184885   -3.294961 H         1 <1>         0.039967 
     18 H          -1.854420   -2.496020   -1.255222 H         1 <1>         0.027108 
     19 H          -0.152701   -2.586092   -0.715330 H         1 <1>         0.027108 
     20 H           0.439191   -3.883144   -2.796273 H         1 <1>         0.026277 
     21 H          -1.259376   -3.784288   -3.342820 H         1 <1>         0.026277 
     22 H          -0.796012   -5.997208   -2.254525 H         1 <1>         0.022978 
     23 H          -1.997641   -5.074579   -1.306259 H         1 <1>         0.022978 
     24 H          -0.299327   -5.170263   -0.749494 H         1 <1>         0.022978 
     25 H           0.011526    3.718278    0.504176 H         1 <1>         0.039967 
     26 H           1.525352    2.969680   -0.080366 H         1 <1>         0.039967 
     27 H           1.471676    1.336836    1.837853 H         1 <1>         0.027108 
     28 H          -0.046947    2.072695    2.428321 H         1 <1>         0.027108 
     29 H           1.147104    4.266948    2.772949 H         1 <1>         0.026277 
     30 H           2.665731    3.537900    2.175326 H         1 <1>         0.026277 
     31 H           2.619066    3.577789    4.681520 H         1 <1>         0.022978 
     32 H           2.626337    1.890853    4.089572 H         1 <1>         0.022978 
     33 H           1.107150    2.623776    4.687069 H         1 <1>         0.022978 
@<TRIPOS>BOND
     1    1    2 1    
     2    1    5 1    
     3    2    3 2    
     4    2   10 1    
     5    3    4 1    
     6    3   14 1    
     7    4    5 2    
     8    4   15 1    
     9    5    6 1    
    10    6    7 1    
    11    6   16 1    
    12    6   17 1    
    13    7    8 1    
    14    7   18 1    
    15    7   19 1    
    16    8    9 1    
    17    8   20 1    
    18    8   21 1    
    19    9   22 1    
    20    9   23 1    
    21    9   24 1    
    22   10   11 1    
    23   10   25 1    
    24   10   26 1    
    25   11   12 1    
    26   11   27 1    
    27   11   28 1    
    28   12   13 1    
    29   12   29 1    
    30   12   30 1    
    31   13   31 1    
    32   13   32 1    
    33   13   33 1    
@<TRIPOS>SUBSTRUCTURE
     1 ****        1 TEMP              0 ****  ****    0 ROOT 
@<TRIPOS>NORMAL
@<TRIPOS>FF_PBC
FORCE_FIELD_SETUP_FEATURE Force Field Setup information
v1.0  0 0.000000 0.000000 0.000000 0.000000 0.000000 0.000000 NONE 0 0 0 0 1 0 0 0 0 0 0 0 0
