@<TRIPOS>MOLECULE
MOL004665
   34    33     1     1     0
SMALL
GASTEIGER


@<TRIPOS>ATOM
      1 O          -4.571728   -0.488733    0.000029 O.3       1 <1>        -0.312147 
      2 O          -3.736882    1.519754    0.000080 O.2       1 <1>        -0.259880 
      3 C           0.385163   -0.084228    0.000143 C.3       1 <1>        -0.028088 
      4 C           1.683717    0.770267    0.000025 C.3       1 <1>        -0.030836 
      5 C          -0.978133    0.597434    0.000107 C.2       1 <1>        -0.066686 
      6 C           2.932679   -0.083223    0.000029 C.2       1 <1>        -0.084989 
      7 C           4.186904    0.399217   -0.000083 C.2       1 <1>        -0.079608 
      8 C          -1.050995    2.112638    0.000089 C.3       1 <1>        -0.043303 
      9 C          -2.088545   -0.162971    0.000095 C.2       1 <1>         0.008928 
     10 C           5.384221   -0.527903   -0.000067 C.3       1 <1>        -0.044049 
     11 C           4.524324    1.875638   -0.000230 C.3       1 <1>        -0.044049 
     12 C          -3.495963    0.324706    0.000068 C.2       1 <1>         0.286524 
     13 C          -4.358009   -1.913196   -0.000003 C.3       1 <1>         0.054555 
     14 C          -5.752493   -2.584890   -0.000054 C.3       1 <1>        -0.040969 
     15 H          -1.893043   -1.231978    0.000111 H         1 <1>         0.067666 
     16 H           0.422489   -0.731698    0.891935 H         1 <1>         0.031297 
     17 H           0.422454   -0.731867   -0.891529 H         1 <1>         0.031297 
     18 H           1.701397    1.399270   -0.904541 H         1 <1>         0.031044 
     19 H           1.701494    1.399385    0.904508 H         1 <1>         0.031044 
     20 H           2.791466   -1.164631    0.000133 H         1 <1>         0.057155 
     21 H          -0.090203    2.638786    0.000091 H         1 <1>         0.027447 
     22 H          -1.595143    2.445764    0.896568 H         1 <1>         0.027447 
     23 H          -1.595129    2.445744   -0.896407 H         1 <1>         0.027447 
     24 H           5.109055   -1.593472    0.000020 H         1 <1>         0.027427 
     25 H           5.996357   -0.335442   -0.893968 H         1 <1>         0.027427 
     26 H           5.996429   -0.335313    0.893757 H         1 <1>         0.027427 
     27 H           3.651624    2.542158   -0.000223 H         1 <1>         0.027427 
     28 H           5.123303    2.108422   -0.893334 H         1 <1>         0.027427 
     29 H           5.123430    2.108570    0.892750 H         1 <1>         0.027427 
     30 H          -3.820240   -2.240138    0.906199 H         1 <1>         0.056313 
     31 H          -3.820194   -2.240088   -0.906197 H         1 <1>         0.056313 
     32 H          -5.655721   -3.682194   -0.000093 H         1 <1>         0.025189 
     33 H          -6.317125   -2.277914   -0.894408 H         1 <1>         0.025189 
     34 H          -6.317158   -2.277980    0.894300 H         1 <1>         0.025189 
@<TRIPOS>BOND
     1   12    1 1    
     2    1   13 1    
     3   12    2 2    
     4    3    4 1    
     5    5    3 1    
     6    3   16 1    
     7    3   17 1    
     8    4    6 1    
     9    4   18 1    
    10    4   19 1    
    11    5    8 1    
    12    9    5 2    
    13    6    7 2    
    14    6   20 1    
    15    7   10 1    
    16    7   11 1    
    17    8   21 1    
    18    8   22 1    
    19    8   23 1    
    20    9   12 1    
    21    9   15 1    
    22   10   24 1    
    23   10   25 1    
    24   10   26 1    
    25   11   27 1    
    26   11   28 1    
    27   11   29 1    
    28   13   14 1    
    29   13   30 1    
    30   13   31 1    
    31   14   32 1    
    32   14   33 1    
    33   14   34 1    
@<TRIPOS>SUBSTRUCTURE
     1 ****        3 TEMP              0 ****  ****    0 ROOT 
@<TRIPOS>NORMAL
@<TRIPOS>FF_PBC
FORCE_FIELD_SETUP_FEATURE Force Field Setup information
v1.0  0 0.000000 0.000000 0.000000 0.000000 0.000000 0.000000 NONE 0 0 0 0 1 0 0 0 0 0 0 0 0
