@<TRIPOS>MOLECULE
MOL005508
   82    86     1     1     0
SMALL
GASTEIGER


@<TRIPOS>ATOM
      1 C           1.380827    1.250669    0.004584 C.2       1 <1>        -0.062664 
      2 C          -2.808730   -0.492352   -0.009543 C.3       1 <1>        -0.022627 
      3 C           1.242406   -0.265477    0.118156 C.3       1 <1>        -0.005087 
      4 C          -0.205687   -0.559947    0.730852 C.3       1 <1>        -0.019371 
      5 C           2.748554    1.912398    0.177847 C.3       1 <1>        -0.001891 
      6 C           3.608124    1.237726    1.291611 C.3       1 <1>         0.062686 
      7 C          -1.305197   -0.043245   -0.261856 C.3       1 <1>        -0.025655 
      8 C          -2.825243   -2.064350    0.056845 C.3       1 <1>        -0.027669 
      9 C          -4.218611   -2.804843   -0.052048 C.3       1 <1>        -0.003164 
     10 C           0.304784    1.999923   -0.286773 C.2       1 <1>        -0.083627 
     11 C          -3.652790   -0.069104   -1.257766 C.3       1 <1>        -0.018438 
     12 C          -4.994504   -2.250490   -1.294195 C.3       1 <1>         0.086418 
     13 C           3.010663    1.439110    2.675615 C.2       1 <1>         0.266390 
     14 C           3.518421    2.101732   -1.179853 C.3       1 <1>        -0.033781 
     15 C          -5.071070   -0.695277   -1.338499 C.3       1 <1>         0.082079 
     16 C           2.344941   -0.968750    0.990996 C.3       1 <1>        -0.042414 
     17 C          -0.414263   -2.101072    0.952147 C.3       1 <1>        -0.046268 
     18 C          -1.087749    1.476865   -0.558026 C.3       1 <1>        -0.030613 
     19 C           3.738152   -0.280398    0.975037 C.3       1 <1>        -0.036964 
     20 C          -1.882806   -2.555142    1.198322 C.3       1 <1>        -0.048607 
     21 C           4.998109    1.932296    1.408424 C.3       1 <1>        -0.037513 
     22 O           3.035169    0.571538    3.535445 O.2       1 <1>        -0.264536 
     23 C           4.872884    2.850934   -0.958741 C.3       1 <1>        -0.040697 
     24 C           5.740009    2.059827    0.057367 C.3       1 <1>        -0.049212 
     25 C          -3.446186    0.185426    1.255043 C.3       1 <1>        -0.058928 
     26 O          -6.311467   -2.840874   -1.288792 O.3       1 <1>        -0.388697 
     27 C           1.461905   -0.750818   -1.362458 C.3       1 <1>        -0.055323 
     28 O           2.461605    2.633010    2.917152 O.3       1 <1>        -0.330836 
     29 C          -0.355914    0.189944    2.107365 C.3       1 <1>        -0.058491 
     30 O          -5.615950   -0.226706   -2.590399 O.3       1 <1>        -0.389202 
     31 C          -3.990654   -4.335625   -0.324653 C.3       1 <1>        -0.057105 
     32 C          -5.122318   -2.742332    1.224432 C.3       1 <1>        -0.057105 
     33 C           2.640424    2.829144   -2.242586 C.3       1 <1>        -0.061601 
     34 C           5.696339    3.057186   -2.265044 C.3       1 <1>        -0.062153 
     35 H          -1.051708   -0.544404   -1.203826 H         1 <1>         0.031461 
     36 H           2.582063    2.947677    0.515626 H         1 <1>         0.035871 
     37 H          -2.327997   -2.393775   -0.869781 H         1 <1>         0.031212 
     38 H           0.411478    3.083966   -0.359083 H         1 <1>         0.057198 
     39 H          -3.763071    1.026567   -1.284588 H         1 <1>         0.029632 
     40 H          -3.141530   -0.367356   -2.187158 H         1 <1>         0.029632 
     41 H          -4.460182   -2.565462   -2.208218 H         1 <1>         0.062439 
     42 H           3.772433    1.130077   -1.618896 H         1 <1>         0.030671 
     43 H          -5.720456   -0.318174   -0.534472 H         1 <1>         0.061925 
     44 H           2.470745   -2.010031    0.650244 H         1 <1>         0.027403 
     45 H           2.052422   -1.054043    2.043369 H         1 <1>         0.027403 
     46 H           0.186141   -2.457381    1.803945 H         1 <1>         0.027096 
     47 H          -0.078549   -2.670141    0.076926 H         1 <1>         0.027096 
     48 H          -1.323858    1.697323   -1.612436 H         1 <1>         0.031042 
     49 H          -1.741149    2.118058    0.042648 H         1 <1>         0.031042 
     50 H           4.384543   -0.761289    1.728624 H         1 <1>         0.027586 
     51 H           4.219832   -0.453045    0.005194 H         1 <1>         0.027586 
     52 H          -1.855985   -3.654072    1.234629 H         1 <1>         0.026846 
     53 H          -2.226997   -2.233753    2.188070 H         1 <1>         0.026846 
     54 H           4.868969    2.953768    1.806101 H         1 <1>         0.027568 
     55 H           5.633250    1.379024    2.120513 H         1 <1>         0.027568 
     56 H           4.665982    3.850830   -0.539492 H         1 <1>         0.030089 
     57 H           6.687684    2.595047    0.239401 H         1 <1>         0.026823 
     58 H           5.996807    1.069141   -0.347496 H         1 <1>         0.026823 
     59 H          -3.398230    1.278728    1.217888 H         1 <1>         0.023526 
     60 H          -4.507869   -0.023140    1.357628 H         1 <1>         0.023526 
     61 H          -3.000630   -0.124994    2.201949 H         1 <1>         0.023526 
     62 H          -6.818863   -2.676126   -2.075452 H         1 <1>         0.209912 
     63 H           1.112142   -1.772209   -1.548473 H         1 <1>         0.023829 
     64 H           2.525196   -0.766398   -1.623362 H         1 <1>         0.023829 
     65 H           0.977792   -0.098356   -2.104719 H         1 <1>         0.023829 
     66 H           2.107249    2.692940    3.797512 H         1 <1>         0.220226 
     67 H           0.591446    0.558991    2.505892 H         1 <1>         0.023542 
     68 H          -0.778434   -0.451677    2.892463 H         1 <1>         0.023542 
     69 H          -0.977132    1.090613    2.042644 H         1 <1>         0.023542 
     70 H          -6.528145   -0.454195   -2.733255 H         1 <1>         0.209888 
     71 H          -4.926253   -4.822572   -0.640901 H         1 <1>         0.023588 
     72 H          -3.655493   -4.869826    0.575797 H         1 <1>         0.023588 
     73 H          -3.254710   -4.513685   -1.123422 H         1 <1>         0.023588 
     74 H          -5.854121   -3.565082    1.221687 H         1 <1>         0.023588 
     75 H          -4.525962   -2.844422    2.140855 H         1 <1>         0.023588 
     76 H          -5.730570   -1.836563    1.296662 H         1 <1>         0.023588 
     77 H           3.142067    2.884447   -3.218519 H         1 <1>         0.023268 
     78 H           1.701122    2.291777   -2.427826 H         1 <1>         0.023268 
     79 H           2.405078    3.851465   -1.910190 H         1 <1>         0.023268 
     80 H           6.702972    3.437702   -2.032417 H         1 <1>         0.023250 
     81 H           5.228019    3.796949   -2.930550 H         1 <1>         0.023250 
     82 H           5.804989    2.105003   -2.806470 H         1 <1>         0.023250 
@<TRIPOS>BOND
     1    3    1 1    
     2    1    5 1    
     3    1   10 2    
     4    7    2 1    
     5    2    8 1    
     6    2   11 1    
     7    2   25 1    
     8    4    3 1    
     9    3   16 1    
    10    3   27 1    
    11    4    7 1    
    12    4   17 1    
    13    4   29 1    
    14    5    6 1    
    15    5   14 1    
    16    5   36 1    
    17    6   13 1    
    18    6   19 1    
    19    6   21 1    
    20    7   18 1    
    21    7   35 1    
    22    8    9 1    
    23    8   20 1    
    24    8   37 1    
    25    9   12 1    
    26    9   31 1    
    27    9   32 1    
    28   10   18 1    
    29   10   38 1    
    30   11   15 1    
    31   11   39 1    
    32   11   40 1    
    33   12   15 1    
    34   12   26 1    
    35   12   41 1    
    36   13   22 2    
    37   13   28 1    
    38   14   23 1    
    39   14   33 1    
    40   14   42 1    
    41   15   30 1    
    42   15   43 1    
    43   16   19 1    
    44   16   44 1    
    45   16   45 1    
    46   17   20 1    
    47   17   46 1    
    48   17   47 1    
    49   18   48 1    
    50   18   49 1    
    51   19   50 1    
    52   19   51 1    
    53   20   52 1    
    54   20   53 1    
    55   21   24 1    
    56   21   54 1    
    57   21   55 1    
    58   23   24 1    
    59   23   34 1    
    60   23   56 1    
    61   24   57 1    
    62   24   58 1    
    63   25   59 1    
    64   25   60 1    
    65   25   61 1    
    66   26   62 1    
    67   27   63 1    
    68   27   64 1    
    69   27   65 1    
    70   28   66 1    
    71   29   67 1    
    72   29   68 1    
    73   29   69 1    
    74   30   70 1    
    75   31   71 1    
    76   31   72 1    
    77   31   73 1    
    78   32   74 1    
    79   32   75 1    
    80   32   76 1    
    81   33   77 1    
    82   33   78 1    
    83   33   79 1    
    84   34   80 1    
    85   34   81 1    
    86   34   82 1    
@<TRIPOS>SUBSTRUCTURE
     1 ****        1 TEMP              0 ****  ****    0 ROOT 
@<TRIPOS>NORMAL
@<TRIPOS>FF_PBC
FORCE_FIELD_SETUP_FEATURE Force Field Setup information
v1.0  0 0.000000 0.000000 0.000000 0.000000 0.000000 0.000000 NONE 0 0 0 0 1 0 0 0 0 0 0 0 0
