@<TRIPOS>MOLECULE
MOL002930
   20    20     1     1     0
SMALL
GASTEIGER


@<TRIPOS>ATOM
      1 O           0.830402    0.281065   -3.865719 O.3       1 <1>        -0.394685 
      2 C           0.074453    0.050894   -2.662719 C.3       1 <1>         0.048173 
      3 C           0.967236    0.426687   -1.454048 C.3       1 <1>        -0.004405 
      4 C           0.360627    0.167552   -0.064240 C.ar      1 <1>        -0.045046 
      5 C           1.245796    0.349451    1.113424 C.ar      1 <1>        -0.056070 
      6 C          -0.983676   -0.231623    0.150899 C.ar      1 <1>        -0.056070 
      7 C           0.767179    0.129063    2.414152 C.ar      1 <1>        -0.031681 
      8 C          -1.488235   -0.464110    1.525924 C.ar      1 <1>        -0.031681 
      9 C          -0.634832   -0.289487    2.638218 C.ar      1 <1>         0.072598 
     10 O          -1.082812   -0.502287    3.944813 O.3       1 <1>        -0.359832 
     11 H           0.348302    0.068460   -4.659710 H         1 <1>         0.209408 
     12 H          -0.211527   -1.013056   -2.596826 H         1 <1>         0.056020 
     13 H          -0.833172    0.678487   -2.671070 H         1 <1>         0.056020 
     14 H           1.223742    1.495731   -1.521516 H         1 <1>         0.033532 
     15 H           1.899502   -0.155749   -1.527660 H         1 <1>         0.033532 
     16 H           2.276484    0.657175    0.968270 H         1 <1>         0.062109 
     17 H          -1.668959   -0.375437   -0.675074 H         1 <1>         0.062109 
     18 H           1.422372    0.264273    3.268015 H         1 <1>         0.064328 
     19 H          -2.519484   -0.769811    1.666244 H         1 <1>         0.064328 
     20 H          -1.993397   -0.767078    4.008623 H         1 <1>         0.217313 
@<TRIPOS>BOND
     1    1    2 1    
     2    1   11 1    
     3    2    3 1    
     4    2   12 1    
     5    2   13 1    
     6    3    4 1    
     7    3   14 1    
     8    3   15 1    
     9    4    5 1    
    10    4    6 2    
    11    5    7 2    
    12    5   16 1    
    13    6    8 1    
    14    6   17 1    
    15    7    9 1    
    16    7   18 1    
    17    8    9 2    
    18    8   19 1    
    19    9   10 1    
    20   10   20 1    
@<TRIPOS>SUBSTRUCTURE
     1 ****        1 TEMP              0 ****  ****    0 ROOT 
@<TRIPOS>NORMAL
@<TRIPOS>FF_PBC
FORCE_FIELD_SETUP_FEATURE Force Field Setup information
v1.0  0 0.000000 0.000000 0.000000 0.000000 0.000000 0.000000 NONE 0 0 0 0 1 0 0 0 0 0 0 0 0
