@<TRIPOS>MOLECULE
MOL000096
   35    37     1     1     0
SMALL
GASTEIGER


@<TRIPOS>ATOM
      1 C          -0.410780    0.058676    0.544012 C.3       1 <1>         0.116322 
      2 C          -0.663443   -1.363094   -0.003501 C.3       1 <1>         0.090048 
      3 O          -1.920914   -1.855961    0.495924 O.3       1 <1>        -0.388542 
      4 C           0.499170   -2.272846    0.462342 C.3       1 <1>         0.006117 
      5 C           1.858576   -1.590037    0.265643 C.ar      1 <1>         0.014968 
      6 C           3.036245   -2.347230    0.324698 C.ar      1 <1>         0.080714 
      7 O           2.989770   -3.715758    0.587434 O.3       1 <1>        -0.359394 
      8 C           4.276862   -1.739536    0.115917 C.ar      1 <1>        -0.001737 
      9 C           4.358772   -0.363552   -0.125664 C.ar      1 <1>         0.077480 
     10 O           5.587217    0.272478   -0.327460 O.3       1 <1>        -0.359667 
     11 C           3.184790    0.391098   -0.165259 C.ar      1 <1>        -0.001449 
     12 C           1.939343   -0.212177    0.023500 C.ar      1 <1>         0.085208 
     13 O           0.790511    0.579566   -0.046445 O.3       1 <1>        -0.333862 
     14 C          -1.597521    0.965842    0.189655 C.ar      1 <1>        -0.013328 
     15 C          -1.614900    1.668205   -1.020208 C.ar      1 <1>        -0.023672 
     16 C          -2.684964    2.506686   -1.341905 C.ar      1 <1>         0.102526 
     17 O          -2.672947    3.196645   -2.557113 O.3       1 <1>        -0.357268 
     18 C          -3.755755    2.649062   -0.450816 C.ar      1 <1>         0.102203 
     19 O          -4.813642    3.500925   -0.790673 O.3       1 <1>        -0.357275 
     20 C          -3.748214    1.939668    0.756588 C.ar      1 <1>        -0.029067 
     21 C          -2.676664    1.098321    1.070533 C.ar      1 <1>        -0.053426 
     22 H          -0.284537    0.025528    1.638480 H         1 <1>         0.067763 
     23 H          -0.680393   -1.297988   -1.106267 H         1 <1>         0.062592 
     24 H          -2.135049   -2.724195    0.168521 H         1 <1>         0.209916 
     25 H           0.381092   -2.480723    1.537217 H         1 <1>         0.034073 
     26 H           0.461733   -3.226263   -0.088362 H         1 <1>         0.034073 
     27 H           2.550727   -3.905026    1.409403 H         1 <1>         0.217327 
     28 H           5.171499   -2.351377    0.146503 H         1 <1>         0.066912 
     29 H           6.342621   -0.304169   -0.298554 H         1 <1>         0.217316 
     30 H           3.240293    1.458568   -0.346422 H         1 <1>         0.066920 
     31 H          -0.796996    1.568930   -1.725318 H         1 <1>         0.064760 
     32 H          -3.449728    3.737373   -2.664190 H         1 <1>         0.217422 
     33 H          -5.504096    3.552577   -0.139124 H         1 <1>         0.217422 
     34 H          -4.571598    2.035564    1.456871 H         1 <1>         0.064413 
     35 H          -2.688081    0.544216    2.004041 H         1 <1>         0.062193 
@<TRIPOS>BOND
     1    1    2 1    
     2    1   13 1    
     3    1   14 1    
     4    1   22 1    
     5    2    3 1    
     6    2    4 1    
     7    2   23 1    
     8    3   24 1    
     9    4    5 1    
    10    4   25 1    
    11    4   26 1    
    12    5    6 ar   
    13    5   12 ar   
    14    6    7 1    
    15    6    8 ar   
    16    7   27 1    
    17    8    9 ar   
    18    8   28 1    
    19    9   10 1    
    20    9   11 ar   
    21   10   29 1    
    22   11   12 ar   
    23   11   30 1    
    24   12   13 1    
    25   14   15 ar   
    26   14   21 ar   
    27   15   16 ar   
    28   15   31 1    
    29   16   17 1    
    30   16   18 ar   
    31   17   32 1    
    32   18   19 1    
    33   18   20 ar   
    34   19   33 1    
    35   20   21 ar   
    36   20   34 1    
    37   21   35 1    
@<TRIPOS>SUBSTRUCTURE
     1 ****        1 TEMP              0 ****  ****    0 ROOT 
@<TRIPOS>NORMAL
@<TRIPOS>FF_PBC
FORCE_FIELD_SETUP_FEATURE Force Field Setup information
v1.0  0 0.000000 0.000000 0.000000 0.000000 0.000000 0.000000 NONE 0 0 0 0 1 0 0 0 0 0 0 0 0
