@<TRIPOS>MOLECULE
MOL000628
   99   103     1     1     0
SMALL
GASTEIGER


@<TRIPOS>ATOM
      1 C          -2.792540   -0.162945   -0.308618 C.3       1 <1>        -0.025405 
      2 C          -3.463740   -1.292284    0.499146 C.3       1 <1>         0.065489 
      3 C          -2.337646   -2.252632    0.966983 C.3       1 <1>        -0.004719 
      4 C          -0.982137   -1.613823    1.204460 C.2       1 <1>        -0.064832 
      5 C          -0.948626   -0.134109    1.558645 C.3       1 <1>        -0.007819 
      6 C          -1.898304    0.701212    0.619697 C.3       1 <1>        -0.041305 
      7 C           0.119919   -2.374993    1.101095 C.2       1 <1>        -0.083873 
      8 C           1.538389   -1.910397    1.319940 C.3       1 <1>        -0.031102 
      9 C           1.599093   -0.535000    2.041910 C.3       1 <1>        -0.030653 
     10 C           0.525053    0.373640    1.382716 C.3       1 <1>        -0.028547 
     11 C           2.999602    0.180227    2.220586 C.3       1 <1>        -0.031963 
     12 C           3.303546    1.369779    1.248965 C.3       1 <1>        -0.025605 
     13 C           2.066681    2.328906    1.109167 C.3       1 <1>        -0.046804 
     14 C           0.785728    1.831781    1.831132 C.3       1 <1>        -0.048644 
     15 C           3.741791    0.585893   -0.033102 C.3       1 <1>        -0.029351 
     16 C           4.605021   -0.589219    0.521099 C.3       1 <1>        -0.048906 
     17 C           4.221234   -0.756843    2.018414 C.3       1 <1>        -0.049151 
     18 C           4.466590    1.371152   -1.175080 C.3       1 <1>        -0.022395 
     19 C           4.864525    0.428853   -2.347054 C.3       1 <1>        -0.058684 
     20 C           3.569882    2.433160   -1.774588 C.2       1 <1>        -0.084547 
     21 C           3.875976    3.735984   -1.823467 C.2       1 <1>        -0.084339 
     22 C           4.504574    2.233568    1.763949 C.3       1 <1>        -0.059029 
     23 C          -1.441427   -0.028055    3.037080 C.3       1 <1>        -0.055578 
     24 O          -4.429173   -1.920589   -0.375262 O.3       1 <1>        -0.345117 
     25 C           3.020295    4.849447   -2.408429 C.3       1 <1>        -0.020812 
     26 C           2.216299    4.574963   -3.728847 C.3       1 <1>        -0.040461 
     27 C           3.053071    3.760043   -4.755431 C.3       1 <1>        -0.062133 
     28 C           2.138493    5.498646   -1.302450 C.3       1 <1>        -0.049381 
     29 C           0.789180    3.972431   -3.551611 C.3       1 <1>        -0.062133 
     30 C          -5.213628   -2.962865    0.239879 C.3       1 <1>         0.188218 
     31 O          -4.349096   -4.056940    0.590662 O.3       1 <1>        -0.340523 
     32 C          -5.031831   -5.174388    1.187251 C.3       1 <1>         0.113005 
     33 C          -6.033775   -5.765552    0.164803 C.3       1 <1>         0.111896 
     34 C          -7.024502   -4.662366   -0.286801 C.3       1 <1>         0.114061 
     35 C          -6.245446   -3.432008   -0.816113 C.3       1 <1>         0.134121 
     36 C          -3.964170   -6.218996    1.600088 C.3       1 <1>         0.073015 
     37 O          -7.874615   -5.207865   -1.313322 O.3       1 <1>        -0.386401 
     38 O          -6.741677   -6.862095    0.772328 O.3       1 <1>        -0.386488 
     39 O          -7.186087   -2.383984   -1.124217 O.3       1 <1>        -0.384104 
     40 O          -3.123319   -5.649891    2.623333 O.3       1 <1>        -0.392366 
     41 C           2.970322    6.062918   -0.119210 C.3       1 <1>        -0.064738 
     42 H          -3.566253    0.469377   -0.776721 H         1 <1>         0.029048 
     43 H          -2.190146   -0.611746   -1.116715 H         1 <1>         0.029048 
     44 H          -3.992673   -0.835003    1.351436 H         1 <1>         0.059993 
     45 H          -2.644134   -2.780003    1.884171 H         1 <1>         0.033519 
     46 H          -2.210106   -2.990808    0.158564 H         1 <1>         0.033519 
     47 H          -2.551998    1.350539    1.224824 H         1 <1>         0.027446 
     48 H          -1.350267    1.373495   -0.060340 H         1 <1>         0.027446 
     49 H           0.009715   -3.428821    0.837683 H         1 <1>         0.057190 
     50 H           2.020150   -1.881399    0.335006 H         1 <1>         0.031025 
     51 H           2.023116   -2.693412    1.924138 H         1 <1>         0.031025 
     52 H           1.268407   -0.764301    3.066509 H         1 <1>         0.030949 
     53 H           0.692042    0.323945    0.295305 H         1 <1>         0.031195 
     54 H           3.028526    0.588299    3.247699 H         1 <1>         0.030897 
     55 H           2.268887    3.335285    1.510712 H         1 <1>         0.027078 
     56 H           1.813355    2.461959    0.051064 H         1 <1>         0.027078 
     57 H           0.917233    1.880622    2.923902 H         1 <1>         0.026846 
     58 H          -0.050147    2.501351    1.573562 H         1 <1>         0.026846 
     59 H           2.840688    0.159810   -0.493278 H         1 <1>         0.031167 
     60 H           4.423461   -1.515577   -0.048490 H         1 <1>         0.026837 
     61 H           5.682409   -0.366477    0.447323 H         1 <1>         0.026837 
     62 H           5.051413   -0.412930    2.658022 H         1 <1>         0.026828 
     63 H           4.057044   -1.802013    2.309205 H         1 <1>         0.026828 
     64 H           5.402256    1.807714   -0.790990 H         1 <1>         0.034310 
     65 H           5.317762    1.014674   -3.162598 H         1 <1>         0.023544 
     66 H           5.598064   -0.327219   -2.030424 H         1 <1>         0.023544 
     67 H           3.979880   -0.091985   -2.745083 H         1 <1>         0.023544 
     68 H           2.635131    2.064520   -2.181132 H         1 <1>         0.057182 
     69 H           4.834173    4.033028   -1.393050 H         1 <1>         0.057190 
     70 H           4.291849    2.622558    2.771659 H         1 <1>         0.023525 
     71 H           5.459903    1.694866    1.809094 H         1 <1>         0.023525 
     72 H           4.659800    3.098126    1.102255 H         1 <1>         0.023525 
     73 H          -2.502009   -0.302380    3.118043 H         1 <1>         0.023820 
     74 H          -0.896728   -0.699541    3.714150 H         1 <1>         0.023820 
     75 H          -1.339207    1.000153    3.412684 H         1 <1>         0.023820 
     76 H           3.759592    5.617577   -2.701528 H         1 <1>         0.034534 
     77 H           2.035053    5.561319   -4.198126 H         1 <1>         0.030110 
     78 H           2.553163    3.754683   -5.736803 H         1 <1>         0.023251 
     79 H           4.049339    4.211332   -4.880834 H         1 <1>         0.023251 
     80 H           3.180597    2.716425   -4.438708 H         1 <1>         0.023251 
     81 H           1.559879    6.331660   -1.737306 H         1 <1>         0.026833 
     82 H           1.430913    4.751353   -0.909757 H         1 <1>         0.026833 
     83 H           0.330931    3.813438   -4.540055 H         1 <1>         0.023251 
     84 H           0.131836    4.659330   -2.997854 H         1 <1>         0.023251 
     85 H           0.787300    3.009940   -3.029386 H         1 <1>         0.023251 
     86 H          -5.749093   -2.565957    1.119371 H         1 <1>         0.093750 
     87 H          -5.565984   -4.868793    2.102451 H         1 <1>         0.064668 
     88 H          -5.471079   -6.118314   -0.717425 H         1 <1>         0.064673 
     89 H          -7.633983   -4.359679    0.582757 H         1 <1>         0.064758 
     90 H          -5.696878   -3.731978   -1.725367 H         1 <1>         0.067095 
     91 H          -4.456988   -7.128880    1.983122 H         1 <1>         0.058370 
     92 H          -3.361961   -6.482387    0.714203 H         1 <1>         0.058370 
     93 H          -8.497211   -4.562031   -1.636150 H         1 <1>         0.210005 
     94 H          -7.385104   -7.238043    0.177613 H         1 <1>         0.210004 
     95 H          -6.747560   -1.603820   -1.453313 H         1 <1>         0.210110 
     96 H          -2.426239   -6.234299    2.906167 H         1 <1>         0.209508 
     97 H           2.302724    6.537551    0.617232 H         1 <1>         0.022995 
     98 H           3.527121    5.264546    0.391201 H         1 <1>         0.022995 
     99 H           3.686708    6.818259   -0.477021 H         1 <1>         0.022995 
@<TRIPOS>BOND
     1    1    2 1    
     2    1    6 1    
     3    1   42 1    
     4    1   43 1    
     5    2    3 1    
     6    2   24 1    
     7    2   44 1    
     8    3    4 1    
     9    3   45 1    
    10    3   46 1    
    11    4    5 1    
    12    4    7 2    
    13    5    6 1    
    14    5   10 1    
    15    5   23 1    
    16    6   47 1    
    17    6   48 1    
    18    7    8 1    
    19    7   49 1    
    20    8    9 1    
    21    8   50 1    
    22    8   51 1    
    23    9   10 1    
    24    9   11 1    
    25    9   52 1    
    26   10   14 1    
    27   10   53 1    
    28   11   12 1    
    29   11   17 1    
    30   11   54 1    
    31   12   13 1    
    32   12   15 1    
    33   12   22 1    
    34   13   14 1    
    35   13   55 1    
    36   13   56 1    
    37   14   57 1    
    38   14   58 1    
    39   15   16 1    
    40   15   18 1    
    41   15   59 1    
    42   16   17 1    
    43   16   60 1    
    44   16   61 1    
    45   17   62 1    
    46   17   63 1    
    47   18   19 1    
    48   18   20 1    
    49   18   64 1    
    50   19   65 1    
    51   19   66 1    
    52   19   67 1    
    53   20   21 2    
    54   20   68 1    
    55   21   25 1    
    56   21   69 1    
    57   22   70 1    
    58   22   71 1    
    59   22   72 1    
    60   23   73 1    
    61   23   74 1    
    62   23   75 1    
    63   24   30 1    
    64   25   26 1    
    65   25   28 1    
    66   25   76 1    
    67   26   27 1    
    68   26   29 1    
    69   26   77 1    
    70   27   78 1    
    71   27   79 1    
    72   27   80 1    
    73   28   41 1    
    74   28   81 1    
    75   28   82 1    
    76   29   83 1    
    77   29   84 1    
    78   29   85 1    
    79   30   31 1    
    80   30   35 1    
    81   30   86 1    
    82   31   32 1    
    83   32   33 1    
    84   32   36 1    
    85   32   87 1    
    86   33   34 1    
    87   33   38 1    
    88   33   88 1    
    89   34   35 1    
    90   34   37 1    
    91   34   89 1    
    92   35   39 1    
    93   35   90 1    
    94   36   40 1    
    95   36   91 1    
    96   36   92 1    
    97   37   93 1    
    98   38   94 1    
    99   39   95 1    
   100   40   96 1    
   101   41   97 1    
   102   41   98 1    
   103   41   99 1    
@<TRIPOS>SUBSTRUCTURE
     1 ****        1 TEMP              0 ****  ****    0 ROOT 
@<TRIPOS>NORMAL
@<TRIPOS>FF_PBC
FORCE_FIELD_SETUP_FEATURE Force Field Setup information
v1.0  0 0.000000 0.000000 0.000000 0.000000 0.000000 0.000000 NONE 0 0 0 0 1 0 0 0 0 0 0 0 0
