@<TRIPOS>MOLECULE
MOL003902
   63    62     1     1     0
SMALL
GASTEIGER


@<TRIPOS>ATOM
      1 C           9.850461   -4.268484    0.002448 C.2       1 <1>         0.261905 
      2 C           8.345499   -4.181293   -0.002584 C.3       1 <1>         0.033189 
      3 C           7.807116   -2.724163    0.001296 C.3       1 <1>        -0.044055 
      4 C           6.254345   -2.695820   -0.000571 C.3       1 <1>        -0.052596 
      5 C           5.712300   -1.240084    0.000979 C.3       1 <1>        -0.053045 
      6 C           4.159400   -1.220164   -0.000118 C.3       1 <1>        -0.053057 
      7 C           3.606268    0.231382    0.000596 C.3       1 <1>        -0.053048 
      8 C           2.053142    0.236715   -0.000127 C.3       1 <1>        -0.052779 
      9 C           1.483443    1.682075    0.000283 C.3       1 <1>        -0.049616 
     10 C          -0.069363    1.668955   -0.000302 C.3       1 <1>        -0.034761 
     11 C          -0.659177    3.060556    0.000052 C.2       1 <1>        -0.087932 
     12 C          -1.979247    3.296874    0.000276 C.2       1 <1>        -0.087932 
     13 C          -3.015552    2.196814    0.000172 C.3       1 <1>        -0.034761 
     14 C          -4.466461    2.750385    0.000101 C.3       1 <1>        -0.049616 
     15 C          -5.505689    1.595561   -0.000091 C.3       1 <1>        -0.052779 
     16 C          -6.962353    2.134346    0.000055 C.3       1 <1>        -0.053048 
     17 C          -7.989914    0.969267   -0.000151 C.3       1 <1>        -0.053065 
     18 C          -9.450465    1.497235    0.000057 C.3       1 <1>        -0.053306 
     19 C         -10.472367    0.327454   -0.000142 C.3       1 <1>        -0.055911 
     20 C         -11.931651    0.852650    0.000067 C.3       1 <1>        -0.065276 
     21 O          10.409065   -5.354624    0.014541 O.2       1 <1>        -0.264985 
     22 O          10.512712   -3.101516   -0.007354 O.3       1 <1>        -0.318522 
     23 C          11.946482   -3.244541   -0.002218 C.3       1 <1>         0.045865 
     24 H           7.980983   -4.707302   -0.898674 H         1 <1>         0.036606 
     25 H           7.974926   -4.713513    0.887376 H         1 <1>         0.036606 
     26 H           8.181627   -2.201771    0.897389 H         1 <1>         0.027004 
     27 H           8.183512   -2.196543   -0.890847 H         1 <1>         0.027004 
     28 H           5.881870   -3.221694   -0.895117 H         1 <1>         0.026540 
     29 H           5.879832   -3.224298    0.891639 H         1 <1>         0.026540 
     30 H           6.083356   -0.712703    0.895218 H         1 <1>         0.026529 
     31 H           6.084442   -0.710653   -0.891533 H         1 <1>         0.026529 
     32 H           3.790104   -1.749624   -0.893926 H         1 <1>         0.026528 
     33 H           3.789032   -1.750805    0.892532 H         1 <1>         0.026528 
     34 H           3.972929    0.762375    0.894508 H         1 <1>         0.026529 
     35 H           3.973621    0.763296   -0.892447 H         1 <1>         0.026529 
     36 H           1.689289   -0.296963   -0.893606 H         1 <1>         0.026538 
     37 H           1.688622   -0.297629    0.892637 H         1 <1>         0.026538 
     38 H           1.842332    2.218085    0.894581 H         1 <1>         0.026822 
     39 H           1.842939    2.218717   -0.893378 H         1 <1>         0.026822 
     40 H          -0.419832    1.131457   -0.895495 H         1 <1>         0.030732 
     41 H          -0.420406    1.130702    0.894223 H         1 <1>         0.030732 
     42 H           0.019986    3.915336    0.000120 H         1 <1>         0.056896 
     43 H          -2.319764    4.334154    0.000538 H         1 <1>         0.056896 
     44 H          -2.873257    1.570601   -0.894678 H         1 <1>         0.030732 
     45 H          -2.873404    1.570589    0.895052 H         1 <1>         0.030732 
     46 H          -4.615686    3.378283    0.894194 H         1 <1>         0.026822 
     47 H          -4.615555    3.378363   -0.893911 H         1 <1>         0.026822 
     48 H          -5.351324    0.968081   -0.893371 H         1 <1>         0.026538 
     49 H          -5.351339    0.967892    0.893089 H         1 <1>         0.026538 
     50 H          -7.119975    2.760732    0.893585 H         1 <1>         0.026529 
     51 H          -7.119980    2.760924   -0.893287 H         1 <1>         0.026529 
     52 H          -7.830314    0.343220   -0.893560 H         1 <1>         0.026528 
     53 H          -7.830248    0.342969    0.893059 H         1 <1>         0.026528 
     54 H          -9.612394    2.122334    0.893598 H         1 <1>         0.026520 
     55 H          -9.612452    2.122602   -0.893234 H         1 <1>         0.026520 
     56 H         -10.315900   -0.299765   -0.893677 H         1 <1>         0.026265 
     57 H         -10.315797   -0.300075    0.893179 H         1 <1>         0.026265 
     58 H         -12.638777    0.007933   -0.000048 H         1 <1>         0.022978 
     59 H         -12.119110    1.465981    0.895325 H         1 <1>         0.022978 
     60 H         -12.119204    1.466330   -0.894926 H         1 <1>         0.022978 
     61 H          12.385484   -2.236096   -0.009902 H         1 <1>         0.052962 
     62 H          12.293706   -3.767796    0.903172 H         1 <1>         0.052962 
     63 H          12.298230   -3.783509   -0.896663 H         1 <1>         0.052962 
@<TRIPOS>BOND
     1    1    2 1    
     2    1   21 2    
     3    1   22 1    
     4    2    3 1    
     5    2   24 1    
     6    2   25 1    
     7    3    4 1    
     8    3   26 1    
     9    3   27 1    
    10    4    5 1    
    11    4   28 1    
    12    4   29 1    
    13    5    6 1    
    14    5   30 1    
    15    5   31 1    
    16    6    7 1    
    17    6   32 1    
    18    6   33 1    
    19    7    8 1    
    20    7   34 1    
    21    7   35 1    
    22    8    9 1    
    23    8   36 1    
    24    8   37 1    
    25    9   10 1    
    26    9   38 1    
    27    9   39 1    
    28   10   11 1    
    29   10   40 1    
    30   10   41 1    
    31   11   12 2    
    32   11   42 1    
    33   12   13 1    
    34   12   43 1    
    35   13   14 1    
    36   13   44 1    
    37   13   45 1    
    38   14   15 1    
    39   14   46 1    
    40   14   47 1    
    41   15   16 1    
    42   15   48 1    
    43   15   49 1    
    44   16   17 1    
    45   16   50 1    
    46   16   51 1    
    47   17   18 1    
    48   17   52 1    
    49   17   53 1    
    50   18   19 1    
    51   18   54 1    
    52   18   55 1    
    53   19   20 1    
    54   19   56 1    
    55   19   57 1    
    56   20   58 1    
    57   20   59 1    
    58   20   60 1    
    59   22   23 1    
    60   23   61 1    
    61   23   62 1    
    62   23   63 1    
@<TRIPOS>SUBSTRUCTURE
     1 ****        1 TEMP              0 ****  ****    0 ROOT 
@<TRIPOS>NORMAL
@<TRIPOS>FF_PBC
FORCE_FIELD_SETUP_FEATURE Force Field Setup information
v1.0  0 0.000000 0.000000 0.000000 0.000000 0.000000 0.000000 NONE 0 0 0 0 1 0 0 0 0 0 0 0 0
