@<TRIPOS>MOLECULE
MOL004584
   81    85     1     1     0
SMALL
GASTEIGER


@<TRIPOS>ATOM
      1 O           1.417360   -2.412729   -1.257937 O.3       1 <1>        -0.375443 
      2 O           2.359975    1.825366   -4.734592 O.3       1 <1>        -0.391248 
      3 O          -3.883991    0.758456   -0.636435 O.3       1 <1>        -0.391114 
      4 O          -5.099916   -1.804711   -0.815746 O.3       1 <1>        -0.394355 
      5 C          -0.977177   -1.178934    1.208133 C.2       1 <1>        -0.060761 
      6 C          -0.289388   -1.932429    0.341303 C.2       1 <1>        -0.055289 
      7 C           0.942178    0.576661    1.177354 C.3       1 <1>        -0.016923 
      8 C           1.646245   -0.320312    0.058224 C.3       1 <1>         0.000718 
      9 C           2.866080    0.247093   -0.821890 C.3       1 <1>        -0.022592 
     10 C          -0.628648    0.285923    1.401676 C.3       1 <1>        -0.002626 
     11 C           2.903226    1.817458   -0.979215 C.3       1 <1>        -0.027753 
     12 C           1.161618    2.110003    0.919082 C.3       1 <1>        -0.046184 
     13 C           2.554049    2.498227    0.375079 C.3       1 <1>        -0.048607 
     14 C           2.337584    2.444732   -2.322338 C.3       1 <1>        -0.005588 
     15 C           0.687768   -1.328188   -0.630759 C.3       1 <1>         0.080545 
     16 C           2.923433   -0.368574   -2.268521 C.3       1 <1>        -0.044638 
     17 C          -1.660016    0.864973    0.357788 C.3       1 <1>        -0.016608 
     18 C          -2.254822   -1.739683    1.829481 C.3       1 <1>        -0.009191 
     19 C          -3.421047   -1.131461    0.955941 C.3       1 <1>         0.026276 
     20 C          -2.849799   -0.076114   -0.082220 C.3       1 <1>         0.064286 
     21 C           1.688461    0.249916    2.529880 C.3       1 <1>        -0.058408 
     22 C           3.160801    1.854017   -3.534143 C.3       1 <1>         0.060637 
     23 C           4.224940   -0.207096   -0.150574 C.3       1 <1>        -0.058927 
     24 C           3.781240    0.450723   -3.263994 C.3       1 <1>        -0.025830 
     25 C          -1.042659    0.871071    2.796565 C.3       1 <1>        -0.055240 
     26 C          -2.564241   -1.838638    3.360674 C.3       1 <1>        -0.045830 
     27 C          -4.524057   -0.519778    1.878330 C.3       1 <1>        -0.042367 
     28 C           2.556400    3.997177   -2.361354 C.3       1 <1>        -0.057190 
     29 C           0.799672    2.266847   -2.559260 C.3       1 <1>        -0.057190 
     30 C          -4.092133   -2.271931    0.102768 C.3       1 <1>         0.052729 
     31 C          -3.976080   -2.453542    3.550964 C.3       1 <1>        -0.052480 
     32 C          -5.070386   -1.522681    2.942177 C.3       1 <1>        -0.052365 
     33 C           0.703275   -3.109189   -2.303948 C.3       1 <1>         0.037218 
     34 H           2.829696    1.570060   -5.522740 H         1 <1>         0.209800 
     35 H          -4.562452    0.256220   -1.079035 H         1 <1>         0.209802 
     36 H          -5.935424   -1.606191   -0.403114 H         1 <1>         0.209421 
     37 H          -0.474465   -3.000798    0.251875 H         1 <1>         0.059746 
     38 H           2.113592   -1.136637    0.629306 H         1 <1>         0.033983 
     39 H           3.965292    2.095716   -1.092146 H         1 <1>         0.031211 
     40 H           0.410209    2.524628    0.253418 H         1 <1>         0.027097 
     41 H           1.061806    2.698279    1.843139 H         1 <1>         0.027097 
     42 H           3.296138    2.226409    1.140604 H         1 <1>         0.026846 
     43 H           2.622313    3.593385    0.292298 H         1 <1>         0.026846 
     44 H           0.091610   -0.784108   -1.372974 H         1 <1>         0.064325 
     45 H           3.336694   -1.390115   -2.247965 H         1 <1>         0.027150 
     46 H           1.945259   -0.431833   -2.754343 H         1 <1>         0.027150 
     47 H          -2.086496    1.816800    0.712911 H         1 <1>         0.029875 
     48 H          -1.134742    1.117938   -0.572517 H         1 <1>         0.029875 
     49 H          -2.229676   -2.819775    1.613302 H         1 <1>         0.035270 
     50 H          -2.434895   -0.655929   -0.928765 H         1 <1>         0.059982 
     51 H           1.409108   -0.757293    2.878369 H         1 <1>         0.023543 
     52 H           2.776959    0.259979    2.428645 H         1 <1>         0.023543 
     53 H           1.491275    0.956950    3.347668 H         1 <1>         0.023543 
     54 H           4.017389    2.519002   -3.754744 H         1 <1>         0.059852 
     55 H           4.366330    0.199040    0.854400 H         1 <1>         0.023526 
     56 H           5.117714    0.097472   -0.711083 H         1 <1>         0.023526 
     57 H           4.286225   -1.303718   -0.065250 H         1 <1>         0.023526 
     58 H           4.809791    0.556102   -2.889929 H         1 <1>         0.029037 
     59 H           3.867067   -0.107190   -4.211719 H         1 <1>         0.029037 
     60 H          -0.674601    1.889561    2.956588 H         1 <1>         0.023830 
     61 H          -2.117136    0.993867    2.904394 H         1 <1>         0.023830 
     62 H          -0.685543    0.247652    3.627249 H         1 <1>         0.023830 
     63 H          -2.624705   -0.899990    3.916561 H         1 <1>         0.027117 
     64 H          -1.799503   -2.459799    3.858855 H         1 <1>         0.027117 
     65 H          -5.373184   -0.134479    1.295496 H         1 <1>         0.027231 
     66 H          -4.132381    0.360222    2.394298 H         1 <1>         0.027231 
     67 H           1.894387    4.537521   -1.668965 H         1 <1>         0.023587 
     68 H           3.594898    4.267318   -2.114794 H         1 <1>         0.023587 
     69 H           2.339679    4.381873   -3.370811 H         1 <1>         0.023587 
     70 H           0.471094    1.232922   -2.455946 H         1 <1>         0.023587 
     71 H           0.194904    2.883103   -1.887377 H         1 <1>         0.023587 
     72 H           0.504953    2.604201   -3.563320 H         1 <1>         0.023587 
     73 H          -4.508804   -3.079636    0.724427 H         1 <1>         0.056353 
     74 H          -3.329293   -2.746809   -0.535295 H         1 <1>         0.056353 
     75 H          -4.002797   -3.448502    3.077331 H         1 <1>         0.026547 
     76 H          -4.178062   -2.615961    4.624200 H         1 <1>         0.026547 
     77 H          -5.536903   -0.929071    3.747831 H         1 <1>         0.026548 
     78 H          -5.872156   -2.144291    2.509393 H         1 <1>         0.026548 
     79 H           0.479523   -2.438417   -3.147393 H         1 <1>         0.052375 
     80 H           1.368637   -3.904114   -2.671273 H         1 <1>         0.052375 
     81 H          -0.233055   -3.577703   -1.969763 H         1 <1>         0.052375 
@<TRIPOS>BOND
     1   15    1 1    
     2    1   33 1    
     3   22    2 1    
     4    2   34 1    
     5   20    3 1    
     6    3   35 1    
     7   30    4 1    
     8    4   36 1    
     9    5    6 2    
    10    5   10 1    
    11   18    5 1    
    12    6   15 1    
    13    6   37 1    
    14    7    8 1    
    15   10    7 1    
    16    7   12 1    
    17    7   21 1    
    18    8    9 1    
    19   15    8 1    
    20    8   38 1    
    21    9   11 1    
    22    9   16 1    
    23    9   23 1    
    24   17   10 1    
    25   10   25 1    
    26   13   11 1    
    27   11   14 1    
    28   11   39 1    
    29   12   13 1    
    30   12   40 1    
    31   12   41 1    
    32   13   42 1    
    33   13   43 1    
    34   14   22 1    
    35   14   28 1    
    36   14   29 1    
    37   15   44 1    
    38   16   24 1    
    39   16   45 1    
    40   16   46 1    
    41   20   17 1    
    42   17   47 1    
    43   17   48 1    
    44   19   18 1    
    45   18   26 1    
    46   18   49 1    
    47   19   20 1    
    48   19   27 1    
    49   19   30 1    
    50   20   50 1    
    51   21   51 1    
    52   21   52 1    
    53   21   53 1    
    54   22   24 1    
    55   22   54 1    
    56   23   55 1    
    57   23   56 1    
    58   23   57 1    
    59   24   58 1    
    60   24   59 1    
    61   25   60 1    
    62   25   61 1    
    63   25   62 1    
    64   26   31 1    
    65   26   63 1    
    66   26   64 1    
    67   27   32 1    
    68   27   65 1    
    69   27   66 1    
    70   28   67 1    
    71   28   68 1    
    72   28   69 1    
    73   29   70 1    
    74   29   71 1    
    75   29   72 1    
    76   30   73 1    
    77   30   74 1    
    78   31   32 1    
    79   31   75 1    
    80   31   76 1    
    81   32   77 1    
    82   32   78 1    
    83   33   79 1    
    84   33   80 1    
    85   33   81 1    
@<TRIPOS>SUBSTRUCTURE
     1 ****        7 TEMP              0 ****  ****    0 ROOT 
@<TRIPOS>NORMAL
@<TRIPOS>FF_PBC
FORCE_FIELD_SETUP_FEATURE Force Field Setup information
v1.0  0 0.000000 0.000000 0.000000 0.000000 0.000000 0.000000 NONE 0 0 0 0 1 0 0 0 0 0 0 0 0
