@<TRIPOS>MOLECULE
MOL004844
   57    59     1     1     0
SMALL
GASTEIGER


@<TRIPOS>ATOM
      1 C          -2.087772    1.443264    1.272717 C.ar      1 <1>         0.093336 
      2 O          -0.989726    0.755962    1.812777 O.3       1 <1>        -0.335388 
      3 C          -1.976988    2.744876    0.942061 C.ar      1 <1>         0.047883 
      4 C          -3.373355    0.721368    1.067842 C.ar      1 <1>         0.016685 
      5 C          -0.648076    3.442492    1.102705 C.2       1 <1>         0.168437 
      6 C           0.354875    1.219597    1.567505 C.3       1 <1>         0.097180 
      7 C           0.451156    2.741005    1.843793 C.3       1 <1>         0.041477 
      8 C          -3.376762   -0.787127    1.388262 C.3       1 <1>        -0.004333 
      9 C           0.896305    0.832604    0.174630 C.ar      1 <1>        -0.017554 
     10 C          -3.151912    3.477660    0.411002 C.ar      1 <1>        -0.046328 
     11 C           2.686163   -0.275667   -1.220471 C.ar      1 <1>        -0.013597 
     12 C           2.175802    0.080714    0.041797 C.ar      1 <1>        -0.050171 
     13 C          -4.684516   -1.530776    1.573497 C.2       1 <1>        -0.080815 
     14 C          -4.449317    1.399924    0.599216 C.ar      1 <1>         0.078530 
     15 C           5.192460   -0.158943   -1.351475 C.2       1 <1>        -0.080898 
     16 C           1.953481    0.122307   -2.448606 C.ar      1 <1>         0.076054 
     17 O          -0.464745    4.554795    0.636219 O.2       1 <1>        -0.291871 
     18 C           3.992478   -1.078600   -1.347130 C.3       1 <1>        -0.006801 
     19 C          -4.323352    2.843330    0.264239 C.ar      1 <1>        -0.030837 
     20 C          -4.932198   -2.783302    1.145910 C.2       1 <1>        -0.079306 
     21 C           6.470776   -0.543060   -1.182003 C.2       1 <1>        -0.079307 
     22 C           0.203502    1.166414   -1.000037 C.ar      1 <1>        -0.053644 
     23 C           0.741023    0.813850   -2.334380 C.ar      1 <1>        -0.031324 
     24 O          -5.666485    0.745358    0.411054 O.3       1 <1>        -0.359468 
     25 O           2.482065   -0.196153   -3.702883 O.3       1 <1>        -0.359551 
     26 C           7.595679    0.469921   -1.176994 C.3       1 <1>        -0.044040 
     27 C           6.909431   -1.979635   -0.985036 C.3       1 <1>        -0.044040 
     28 C          -6.269008   -3.450946    1.387619 C.3       1 <1>        -0.044040 
     29 C          -3.923287   -3.637609    0.406758 C.3       1 <1>        -0.044040 
     30 H           0.976936    0.700884    2.317478 H         1 <1>         0.065571 
     31 H           1.440372    3.124398    1.549059 H         1 <1>         0.037398 
     32 H           0.296571    2.942205    2.914920 H         1 <1>         0.037398 
     33 H          -2.768627   -1.217814    0.580449 H         1 <1>         0.035721 
     34 H          -2.832105   -0.919894    2.334920 H         1 <1>         0.035721 
     35 H          -3.059185    4.526711    0.146546 H         1 <1>         0.062610 
     36 H           2.731636   -0.207963    0.928287 H         1 <1>         0.062471 
     37 H          -5.464925   -0.998428    2.116318 H         1 <1>         0.057473 
     38 H           4.978235    0.897720   -1.511463 H         1 <1>         0.057472 
     39 H           4.045360   -1.795050   -0.514573 H         1 <1>         0.035640 
     40 H           3.988969   -1.654172   -2.285491 H         1 <1>         0.035640 
     41 H          -5.182330    3.390915   -0.112125 H         1 <1>         0.064350 
     42 H          -0.739473    1.689098   -0.965474 H         1 <1>         0.062190 
     43 H           0.185546    1.103364   -3.221321 H         1 <1>         0.064338 
     44 H          -6.403877    1.332322    0.287683 H         1 <1>         0.217326 
     45 H           1.998614    0.165153   -4.438744 H         1 <1>         0.217325 
     46 H           7.244547    1.507184   -1.279277 H         1 <1>         0.027427 
     47 H           8.284510    0.261966   -2.009771 H         1 <1>         0.027427 
     48 H           8.153095    0.393166   -0.230979 H         1 <1>         0.027427 
     49 H           6.120839   -2.717538   -1.178929 H         1 <1>         0.027427 
     50 H           7.741825   -2.207832   -1.667953 H         1 <1>         0.027427 
     51 H           7.261789   -2.110235    0.049101 H         1 <1>         0.027427 
     52 H          -6.116526   -4.316299    2.052961 H         1 <1>         0.027427 
     53 H          -6.675723   -3.811526    0.429282 H         1 <1>         0.027427 
     54 H          -7.011736   -2.784213    1.854119 H         1 <1>         0.027427 
     55 H          -4.164874   -4.707552    0.501097 H         1 <1>         0.027427 
     56 H          -2.901631   -3.513225    0.791125 H         1 <1>         0.027427 
     57 H          -3.944727   -3.380988   -0.662528 H         1 <1>         0.027427 
@<TRIPOS>BOND
     1    1    2 1    
     2    1    3 2    
     3    1    4 1    
     4    2    6 1    
     5    3    5 1    
     6    3   10 1    
     7    4    8 1    
     8    4   14 2    
     9    5    7 1    
    10    5   17 2    
    11    6    7 1    
    12    6    9 1    
    13    6   30 1    
    14    7   31 1    
    15    7   32 1    
    16    8   13 1    
    17    8   33 1    
    18    8   34 1    
    19    9   12 1    
    20    9   22 2    
    21   10   19 2    
    22   10   35 1    
    23   12   11 2    
    24   11   16 1    
    25   11   18 1    
    26   12   36 1    
    27   13   20 2    
    28   13   37 1    
    29   14   19 1    
    30   14   24 1    
    31   18   15 1    
    32   15   21 2    
    33   15   38 1    
    34   16   23 2    
    35   16   25 1    
    36   18   39 1    
    37   18   40 1    
    38   19   41 1    
    39   20   28 1    
    40   20   29 1    
    41   21   26 1    
    42   21   27 1    
    43   22   23 1    
    44   22   42 1    
    45   23   43 1    
    46   24   44 1    
    47   25   45 1    
    48   26   46 1    
    49   26   47 1    
    50   26   48 1    
    51   27   49 1    
    52   27   50 1    
    53   27   51 1    
    54   28   52 1    
    55   28   53 1    
    56   28   54 1    
    57   29   55 1    
    58   29   56 1    
    59   29   57 1    
@<TRIPOS>SUBSTRUCTURE
     1 ****        1 TEMP              0 ****  ****    0 ROOT 
@<TRIPOS>NORMAL
@<TRIPOS>FF_PBC
FORCE_FIELD_SETUP_FEATURE Force Field Setup information
v1.0  0 0.000000 0.000000 0.000000 0.000000 0.000000 0.000000 NONE 0 0 0 0 1 0 0 0 0 0 0 0 0
