@<TRIPOS>MOLECULE
MOL004998
   80    84     1     1     0
SMALL
GASTEIGER


@<TRIPOS>ATOM
      1 C          -0.065401    0.622777   -3.905296 C.3       1 <1>        -0.031522 
      2 C          -0.356964   -0.638708   -3.036431 C.3       1 <1>        -0.012608 
      3 C          -1.805071   -1.202700   -3.156137 C.3       1 <1>        -0.025442 
      4 C          -2.231571   -1.249466   -4.661886 C.3       1 <1>        -0.046118 
      5 C          -1.923916    0.032317   -5.487427 C.3       1 <1>        -0.038057 
      6 C          -0.417925    0.427755   -5.409804 C.3       1 <1>         0.053721 
      7 C          -0.092489   -0.627613   -1.528797 C.2       1 <1>        -0.056185 
      8 C          -0.813626    0.384102   -0.621486 C.3       1 <1>        -0.004332 
      9 C          -2.289635   -0.134009   -0.780670 C.3       1 <1>        -0.042869 
     10 C          -2.760904   -0.341753   -2.267823 C.3       1 <1>        -0.046277 
     11 C           0.683811   -1.600569   -1.036950 C.2       1 <1>        -0.018839 
     12 C           0.820189   -1.895990    0.388137 C.2       1 <1>         0.160199 
     13 C           0.122920   -1.064299    1.427200 C.3       1 <1>         0.033332 
     14 C          -0.163640    0.365935    0.850998 C.3       1 <1>        -0.012656 
     15 C           0.806755   -1.180279    2.863790 C.3       1 <1>        -0.018250 
     16 C           0.512353    0.088200    3.773308 C.3       1 <1>        -0.027446 
     17 C          -0.890848    0.670227    3.419139 C.3       1 <1>        -0.048587 
     18 C          -1.082173    1.074617    1.917946 C.3       1 <1>        -0.045876 
     19 C           2.344145   -1.514260    2.847826 C.3       1 <1>        -0.044330 
     20 C           3.071935   -1.019946    4.125484 C.3       1 <1>        -0.025820 
     21 C           3.080943    0.521584    4.138586 C.3       1 <1>         0.060638 
     22 C           1.634694    1.115307    4.294410 C.3       1 <1>        -0.005578 
     23 C           0.491510   -0.595998   -6.062220 C.2       1 <1>         0.265560 
     24 C          -0.196727    1.759988   -6.188069 C.3       1 <1>        -0.050480 
     25 O           1.799557   -0.399399   -5.868379 O.3       1 <1>        -0.330857 
     26 O           0.075948   -1.527919   -6.725902 O.2       1 <1>        -0.264567 
     27 C          -1.875087   -2.684631   -2.657139 C.3       1 <1>        -0.059016 
     28 C          -0.794331    1.878770   -1.106028 C.3       1 <1>        -0.055302 
     29 C           1.216472    1.087175    0.737891 C.3       1 <1>        -0.058099 
     30 O           1.488046   -2.868764    0.681506 O.2       1 <1>        -0.292347 
     31 C           0.148966   -2.458993    3.521235 C.3       1 <1>        -0.058618 
     32 C           1.393764    1.340449    5.838853 C.3       1 <1>        -0.057190 
     33 C           1.624768    2.562901    3.661922 C.3       1 <1>        -0.057190 
     34 O           3.990440    0.926674    5.178512 O.3       1 <1>        -0.391248 
     35 H           0.992040    0.913718   -3.781630 H         1 <1>         0.028121 
     36 H          -0.674684    1.478376   -3.631549 H         1 <1>         0.028121 
     37 H           0.285955   -1.391827   -3.523807 H         1 <1>         0.035146 
     38 H          -1.709659   -2.083593   -5.158465 H         1 <1>         0.027098 
     39 H          -3.311137   -1.460362   -4.729379 H         1 <1>         0.027098 
     40 H          -2.196224   -0.142386   -6.543329 H         1 <1>         0.027550 
     41 H          -2.559731    0.854665   -5.123234 H         1 <1>         0.027550 
     42 H          -3.005588    0.580984   -0.346430 H         1 <1>         0.027392 
     43 H          -2.413040   -1.076910   -0.231221 H         1 <1>         0.027392 
     44 H          -3.757186   -0.818560   -2.253421 H         1 <1>         0.027096 
     45 H          -2.908282    0.622450   -2.767712 H         1 <1>         0.027096 
     46 H           1.231849   -2.295777   -1.674986 H         1 <1>         0.065218 
     47 H          -0.875138   -1.526100    1.479242 H         1 <1>         0.039170 
     48 H           0.291079   -0.417873    4.724415 H         1 <1>         0.031221 
     49 H          -1.644689   -0.107236    3.646122 H         1 <1>         0.026846 
     50 H          -1.137099    1.506994    4.094910 H         1 <1>         0.026846 
     51 H          -1.027054    2.167316    1.848465 H         1 <1>         0.027107 
     52 H          -2.131244    0.836459    1.703503 H         1 <1>         0.027107 
     53 H           2.535218   -2.599892    2.798934 H         1 <1>         0.027160 
     54 H           2.850537   -1.087857    1.971564 H         1 <1>         0.027160 
     55 H           4.124701   -1.355996    4.102518 H         1 <1>         0.029038 
     56 H           2.621608   -1.411836    5.050721 H         1 <1>         0.029038 
     57 H           3.549745    0.807122    3.184555 H         1 <1>         0.059852 
     58 H           0.864596    2.049869   -6.170883 H         1 <1>         0.023986 
     59 H          -0.780547    2.579250   -5.742999 H         1 <1>         0.023986 
     60 H          -0.507895    1.647975   -7.237447 H         1 <1>         0.023986 
     61 H           2.324225   -1.057882   -6.307792 H         1 <1>         0.220226 
     62 H          -1.647404   -2.797019   -1.589309 H         1 <1>         0.023525 
     63 H          -2.885965   -3.086459   -2.826125 H         1 <1>         0.023525 
     64 H          -1.166958   -3.325470   -3.206715 H         1 <1>         0.023525 
     65 H           0.176825    2.140178   -1.546746 H         1 <1>         0.023829 
     66 H          -1.583725    2.144027   -1.811092 H         1 <1>         0.023829 
     67 H          -0.988268    2.591439   -0.302239 H         1 <1>         0.023829 
     68 H           1.811960    0.950897    1.632981 H         1 <1>         0.023553 
     69 H           1.138224    2.175173    0.601301 H         1 <1>         0.023553 
     70 H           1.793654    0.681886   -0.102554 H         1 <1>         0.023553 
     71 H          -0.926166   -2.331994    3.713409 H         1 <1>         0.023535 
     72 H           0.251353   -3.341426    2.871396 H         1 <1>         0.023535 
     73 H           0.619137   -2.710357    4.483767 H         1 <1>         0.023535 
     74 H           2.065091    2.087083    6.287104 H         1 <1>         0.023587 
     75 H           0.363727    1.685200    6.018197 H         1 <1>         0.023587 
     76 H           1.552956    0.413351    6.412677 H         1 <1>         0.023587 
     77 H           2.480195    2.779244    3.007104 H         1 <1>         0.023587 
     78 H           1.646526    3.368066    4.410566 H         1 <1>         0.023587 
     79 H           0.733779    2.752191    3.067481 H         1 <1>         0.023587 
     80 H           4.182615    1.857273    5.181208 H         1 <1>         0.209800 
@<TRIPOS>BOND
     1    1    2 1    
     2    1    6 1    
     3    1   35 1    
     4    1   36 1    
     5    2    3 1    
     6    2    7 1    
     7    2   37 1    
     8    3    4 1    
     9    3   10 1    
    10    3   27 1    
    11    4    5 1    
    12    4   38 1    
    13    4   39 1    
    14    5    6 1    
    15    5   40 1    
    16    5   41 1    
    17    6   23 1    
    18    6   24 1    
    19    7    8 1    
    20    7   11 2    
    21    8    9 1    
    22    8   14 1    
    23    8   28 1    
    24    9   10 1    
    25    9   42 1    
    26    9   43 1    
    27   10   44 1    
    28   10   45 1    
    29   11   12 1    
    30   11   46 1    
    31   12   13 1    
    32   12   30 2    
    33   13   14 1    
    34   13   15 1    
    35   13   47 1    
    36   14   18 1    
    37   14   29 1    
    38   15   16 1    
    39   15   19 1    
    40   15   31 1    
    41   16   17 1    
    42   16   22 1    
    43   16   48 1    
    44   17   18 1    
    45   17   49 1    
    46   17   50 1    
    47   18   51 1    
    48   18   52 1    
    49   19   20 1    
    50   19   53 1    
    51   19   54 1    
    52   20   21 1    
    53   20   55 1    
    54   20   56 1    
    55   21   22 1    
    56   21   34 1    
    57   21   57 1    
    58   22   32 1    
    59   22   33 1    
    60   23   25 1    
    61   23   26 2    
    62   24   58 1    
    63   24   59 1    
    64   24   60 1    
    65   25   61 1    
    66   27   62 1    
    67   27   63 1    
    68   27   64 1    
    69   28   65 1    
    70   28   66 1    
    71   28   67 1    
    72   29   68 1    
    73   29   69 1    
    74   29   70 1    
    75   31   71 1    
    76   31   72 1    
    77   31   73 1    
    78   32   74 1    
    79   32   75 1    
    80   32   76 1    
    81   33   77 1    
    82   33   78 1    
    83   33   79 1    
    84   34   80 1    
@<TRIPOS>SUBSTRUCTURE
     1 ****        1 TEMP              0 ****  ****    0 ROOT 
@<TRIPOS>NORMAL
@<TRIPOS>FF_PBC
FORCE_FIELD_SETUP_FEATURE Force Field Setup information
v1.0  0 0.000000 0.000000 0.000000 0.000000 0.000000 0.000000 NONE 0 0 0 0 1 0 0 0 0 0 0 0 0
