@<TRIPOS>MOLECULE
MOL002154
   28    27     1     1     0
SMALL
GASTEIGER


@<TRIPOS>ATOM
      1 C           0.041402   -0.301886    0.000074 C.3       1 <1>        -0.049615 
      2 C          -1.340202    0.405946   -0.000151 C.3       1 <1>        -0.034690 
      3 C           1.206571    0.725460   -0.000089 C.3       1 <1>        -0.052788 
      4 C          -2.481700   -0.582765   -0.000023 C.2       1 <1>        -0.085798 
      5 C           2.586821    0.012938    0.000130 C.3       1 <1>        -0.053297 
      6 C          -3.759211   -0.180305   -0.000247 C.2       1 <1>        -0.062873 
      7 C           3.754611    1.036703   -0.000047 C.3       1 <1>        -0.055911 
      8 C          -4.906486   -1.156794   -0.000133 C.3       1 <1>         0.062389 
      9 C           5.130266    0.320261    0.000165 C.3       1 <1>        -0.065276 
     10 O          -6.142818   -0.420668    0.000467 O.3       1 <1>        -0.391002 
     11 H           0.118359   -0.942637    0.894222 H         1 <1>         0.026822 
     12 H           0.118451   -0.943032   -0.893784 H         1 <1>         0.026822 
     13 H          -1.426247    1.044156   -0.894365 H         1 <1>         0.030733 
     14 H          -1.426360    1.044520    0.893791 H         1 <1>         0.030733 
     15 H           1.127446    1.366439   -0.893586 H         1 <1>         0.026537 
     16 H           1.127358    1.366834    0.893115 H         1 <1>         0.026537 
     17 H          -2.265372   -1.652086    0.000251 H         1 <1>         0.056966 
     18 H           2.666042   -0.628043    0.893651 H         1 <1>         0.026520 
     19 H           2.666123   -0.628448   -0.893095 H         1 <1>         0.026520 
     20 H          -3.987299    0.886323   -0.000539 H         1 <1>         0.059150 
     21 H           3.683012    1.679085   -0.893683 H         1 <1>         0.026265 
     22 H           3.682940    1.679484    0.893292 H         1 <1>         0.026265 
     23 H          -4.837111   -1.792111   -0.899119 H         1 <1>         0.060118 
     24 H          -4.836564   -1.792656    0.898430 H         1 <1>         0.060118 
     25 H           5.944655    1.061942    0.000030 H         1 <1>         0.022978 
     26 H           5.233564   -0.312795    0.895294 H         1 <1>         0.022978 
     27 H           5.233635   -0.313197   -0.894669 H         1 <1>         0.022978 
     28 H          -6.911885   -0.982769    0.000518 H         1 <1>         0.209823 
@<TRIPOS>BOND
     1    1    2 1    
     2    1    3 1    
     3    1   11 1    
     4    1   12 1    
     5    2    4 1    
     6    2   13 1    
     7    2   14 1    
     8    3    5 1    
     9    3   15 1    
    10    3   16 1    
    11    4    6 2    
    12    4   17 1    
    13    5    7 1    
    14    5   18 1    
    15    5   19 1    
    16    6    8 1    
    17    6   20 1    
    18    7    9 1    
    19    7   21 1    
    20    7   22 1    
    21    8   10 1    
    22    8   23 1    
    23    8   24 1    
    24    9   25 1    
    25    9   26 1    
    26    9   27 1    
    27   10   28 1    
@<TRIPOS>SUBSTRUCTURE
     1 ****        1 TEMP              0 ****  ****    0 ROOT 
@<TRIPOS>NORMAL
@<TRIPOS>FF_PBC
FORCE_FIELD_SETUP_FEATURE Force Field Setup information
v1.0  0 0.000000 0.000000 0.000000 0.000000 0.000000 0.000000 NONE 0 0 0 0 1 0 0 0 0 0 0 0 0
