@<TRIPOS>MOLECULE
MOL001393
   44    43     1     1     0
SMALL
GASTEIGER


@<TRIPOS>ATOM
      1 C           8.268726    0.447140   -0.000039 C.2       1 <1>         0.259588 
      2 C           7.017621   -0.393062    0.000117 C.3       1 <1>         0.033006 
      3 C           5.724649    0.466887   -0.000077 C.3       1 <1>        -0.044061 
      4 C           4.449803   -0.420789    0.000095 C.3       1 <1>        -0.052596 
      5 C           3.160158    0.445145   -0.000112 C.3       1 <1>        -0.053045 
      6 C           1.881561   -0.437214    0.000081 C.3       1 <1>        -0.053057 
      7 C           0.595201    0.433830   -0.000128 C.3       1 <1>        -0.053057 
      8 C          -0.686591   -0.443740    0.000084 C.3       1 <1>        -0.053057 
      9 C          -1.970413    0.431050   -0.000126 C.3       1 <1>        -0.053057 
     10 C          -3.253882   -0.444157    0.000091 C.3       1 <1>        -0.053057 
     11 C          -4.536854    0.431817   -0.000121 C.3       1 <1>        -0.053065 
     12 C          -5.820628   -0.442886    0.000091 C.3       1 <1>        -0.053306 
     13 C          -7.102974    0.433435   -0.000124 C.3       1 <1>        -0.055911 
     14 C          -8.384063   -0.440827    0.000089 C.3       1 <1>        -0.065276 
     15 O           8.238122    1.668071   -0.000265 O.2       1 <1>        -0.265177 
     16 O           9.413961   -0.238143    0.000088 O.3       1 <1>        -0.331267 
     17 H           7.037387   -1.035991    0.893951 H         1 <1>         0.036600 
     18 H           7.037410   -1.036359   -0.893451 H         1 <1>         0.036600 
     19 H           5.721735    1.112596   -0.893978 H         1 <1>         0.027004 
     20 H           5.721714    1.112972    0.893551 H         1 <1>         0.027004 
     21 H           4.454997   -1.066560    0.893672 H         1 <1>         0.026540 
     22 H           4.455023   -1.066950   -0.893205 H         1 <1>         0.026540 
     23 H           3.155924    1.091165   -0.893524 H         1 <1>         0.026529 
     24 H           3.155911    1.091573    0.893002 H         1 <1>         0.026529 
     25 H           1.884309   -1.083069    0.893563 H         1 <1>         0.026528 
     26 H           1.884323   -1.083487   -0.893105 H         1 <1>         0.026528 
     27 H           0.593413    1.079793   -0.893563 H         1 <1>         0.026528 
     28 H           0.593412    1.080226    0.892987 H         1 <1>         0.026528 
     29 H          -0.685816   -1.089635    0.893571 H         1 <1>         0.026528 
     30 H          -0.685817   -1.090072   -0.893097 H         1 <1>         0.026528 
     31 H          -1.970656    1.077016   -0.893559 H         1 <1>         0.026528 
     32 H          -1.970652    1.077454    0.892988 H         1 <1>         0.026528 
     33 H          -3.254028   -1.090015    0.893574 H         1 <1>         0.026528 
     34 H          -3.254031   -1.090457   -0.893080 H         1 <1>         0.026528 
     35 H          -4.536849    1.077730   -0.893594 H         1 <1>         0.026528 
     36 H          -4.536848    1.078167    0.893030 H         1 <1>         0.026528 
     37 H          -5.821986   -1.088725    0.893600 H         1 <1>         0.026520 
     38 H          -5.821986   -1.089166   -0.893102 H         1 <1>         0.026520 
     39 H          -7.108502    1.079755   -0.893759 H         1 <1>         0.026265 
     40 H          -7.108504    1.080194    0.893193 H         1 <1>         0.026265 
     41 H          -9.280246    0.199819   -0.000069 H         1 <1>         0.022978 
     42 H          -8.412111   -1.081527    0.895261 H         1 <1>         0.022978 
     43 H          -8.412109   -1.081967   -0.894772 H         1 <1>         0.022978 
     44 H          10.169984    0.338864   -0.000023 H         1 <1>         0.220208 
@<TRIPOS>BOND
     1    1    2 1    
     2    1   15 2    
     3    1   16 1    
     4    2    3 1    
     5    2   17 1    
     6    2   18 1    
     7    3    4 1    
     8    3   19 1    
     9    3   20 1    
    10    4    5 1    
    11    4   21 1    
    12    4   22 1    
    13    5    6 1    
    14    5   23 1    
    15    5   24 1    
    16    6    7 1    
    17    6   25 1    
    18    6   26 1    
    19    7    8 1    
    20    7   27 1    
    21    7   28 1    
    22    8    9 1    
    23    8   29 1    
    24    8   30 1    
    25    9   10 1    
    26    9   31 1    
    27    9   32 1    
    28   10   11 1    
    29   10   33 1    
    30   10   34 1    
    31   11   12 1    
    32   11   35 1    
    33   11   36 1    
    34   12   13 1    
    35   12   37 1    
    36   12   38 1    
    37   13   14 1    
    38   13   39 1    
    39   13   40 1    
    40   14   41 1    
    41   14   42 1    
    42   14   43 1    
    43   16   44 1    
@<TRIPOS>SUBSTRUCTURE
     1 ****        1 TEMP              0 ****  ****    0 ROOT 
@<TRIPOS>NORMAL
@<TRIPOS>FF_PBC
FORCE_FIELD_SETUP_FEATURE Force Field Setup information
v1.0  0 0.000000 0.000000 0.000000 0.000000 0.000000 0.000000 NONE 0 0 0 0 1 0 0 0 0 0 0 0 0
