@<TRIPOS>MOLECULE
MOL002854
   29    29     1     1     0
SMALL
GASTEIGER


@<TRIPOS>ATOM
      1 C           0.684051   -0.455486    0.730883 C.3       1 <1>        -0.018062 
      2 C          -0.544630    0.402328    1.153510 C.3       1 <1>        -0.020094 
      3 C           0.308930   -1.473112   -0.393722 C.3       1 <1>        -0.046126 
      4 C           1.953102    0.375323    0.556023 C.2       1 <1>        -0.076528 
      5 C          -1.286993    1.011519   -0.062618 C.3       1 <1>         0.058347 
      6 C          -0.572872   -0.913523   -1.549468 C.3       1 <1>        -0.047582 
      7 C           2.708937    0.714320    1.828968 C.3       1 <1>        -0.043776 
      8 C           2.429245    0.800462   -0.622814 C.2       1 <1>        -0.099446 
      9 C          -1.787070   -0.093192   -1.037411 C.3       1 <1>        -0.017758 
     10 O          -0.377338    1.909832   -0.724205 O.3       1 <1>        -0.391503 
     11 C          -2.902033   -0.995241   -0.432188 C.3       1 <1>        -0.060071 
     12 H           0.930275   -1.092663    1.599870 H         1 <1>         0.034622 
     13 H          -0.228023    1.227448    1.809615 H         1 <1>         0.029585 
     14 H          -1.247535   -0.212905    1.736006 H         1 <1>         0.029585 
     15 H           1.231655   -1.911678   -0.808041 H         1 <1>         0.027107 
     16 H          -0.261904   -2.300106    0.061549 H         1 <1>         0.027107 
     17 H          -2.152059    1.592183    0.307274 H         1 <1>         0.059592 
     18 H           0.012455   -0.267530   -2.215817 H         1 <1>         0.026883 
     19 H          -0.931207   -1.750344   -2.172143 H         1 <1>         0.026883 
     20 H           3.144803   -0.206179    2.245937 H         1 <1>         0.027436 
     21 H           3.530353    1.427986    1.663453 H         1 <1>         0.027436 
     22 H           2.038344    1.153118    2.581359 H         1 <1>         0.027436 
     23 H           3.343561    1.389217   -0.687836 H         1 <1>         0.053440 
     24 H           1.956227    0.596363   -1.573918 H         1 <1>         0.053440 
     25 H          -2.249336    0.412773   -1.904595 H         1 <1>         0.032294 
     26 H          -0.761428    2.356771   -1.471486 H         1 <1>         0.209788 
     27 H          -3.732784   -0.373112   -0.064395 H         1 <1>         0.023321 
     28 H          -2.544763   -1.618439    0.398028 H         1 <1>         0.023321 
     29 H          -3.299149   -1.669375   -1.207426 H         1 <1>         0.023321 
@<TRIPOS>BOND
     1    1    2 1    
     2    1    3 1    
     3    1    4 1    
     4    1   12 1    
     5    2    5 1    
     6    2   13 1    
     7    2   14 1    
     8    3    6 1    
     9    3   15 1    
    10    3   16 1    
    11    4    7 1    
    12    4    8 2    
    13    5    9 1    
    14    5   10 1    
    15    5   17 1    
    16    6    9 1    
    17    6   18 1    
    18    6   19 1    
    19    7   20 1    
    20    7   21 1    
    21    7   22 1    
    22    8   23 1    
    23    8   24 1    
    24    9   11 1    
    25    9   25 1    
    26   10   26 1    
    27   11   27 1    
    28   11   28 1    
    29   11   29 1    
@<TRIPOS>SUBSTRUCTURE
     1 ****        1 TEMP              0 ****  ****    0 ROOT 
@<TRIPOS>NORMAL
@<TRIPOS>FF_PBC
FORCE_FIELD_SETUP_FEATURE Force Field Setup information
v1.0  0 0.000000 0.000000 0.000000 0.000000 0.000000 0.000000 NONE 0 0 0 0 1 0 0 0 0 0 0 0 0
