@<TRIPOS>MOLECULE
MOL004881
   45    46     1     1     0
SMALL
GASTEIGER


@<TRIPOS>ATOM
      1 O          -1.948627   -1.227353   -0.896939 O.3       1 <1>        -0.358758 
      2 O          -3.527910    3.388846   -0.242770 O.3       1 <1>        -0.359468 
      3 O           0.498998   -1.691808   -0.108686 O.2       1 <1>        -0.287193 
      4 O           4.806425   -0.038531    2.471222 O.3       1 <1>        -0.359162 
      5 O           8.735856    0.719229   -0.413178 O.3       1 <1>        -0.359750 
      6 C          -2.766154    1.094131   -0.586137 C.ar      1 <1>         0.016409 
      7 C          -4.166431    0.633585   -1.014832 C.3       1 <1>        -0.004341 
      8 C          -1.662888    0.098391   -0.557305 C.ar      1 <1>         0.089261 
      9 C          -0.341098    0.503702   -0.194125 C.ar      1 <1>         0.051755 
     10 C          -2.511045    2.435261   -0.231723 C.ar      1 <1>         0.078522 
     11 C          -4.898794    0.092346    0.191960 C.2       1 <1>        -0.080815 
     12 C          -0.096059    1.920395    0.172569 C.ar      1 <1>        -0.046007 
     13 C          -1.142848    2.849095    0.152735 C.ar      1 <1>        -0.030827 
     14 C          -5.420153   -1.138780    0.310266 C.2       1 <1>        -0.079306 
     15 C           0.787577   -0.506593   -0.176326 C.2       1 <1>         0.188553 
     16 C           2.211423   -0.123799   -0.244837 C.2       1 <1>        -0.013628 
     17 C          -6.122987   -1.583874    1.575489 C.3       1 <1>        -0.044040 
     18 C          -5.342713   -2.170265   -0.793348 C.3       1 <1>        -0.044040 
     19 C           4.642731   -0.500454    0.063571 C.ar      1 <1>         0.004978 
     20 C           3.196891   -0.931000    0.167244 C.2       1 <1>        -0.048501 
     21 C           5.377707   -0.077316    1.196065 C.ar      1 <1>         0.082136 
     22 C           5.291776   -0.528021   -1.269888 C.ar      1 <1>        -0.049705 
     23 C           6.788734    0.346124    1.034280 C.ar      1 <1>        -0.001591 
     24 C           6.629779   -0.133669   -1.413670 C.ar      1 <1>        -0.031222 
     25 C           7.407306    0.322378   -0.238036 C.ar      1 <1>         0.075054 
     26 H          -4.741774    1.471136   -1.438063 H         1 <1>         0.035721 
     27 H          -4.042704   -0.101376   -1.821266 H         1 <1>         0.035721 
     28 H          -4.997057    0.784970    1.027155 H         1 <1>         0.057473 
     29 H           0.893254    2.251246    0.467604 H         1 <1>         0.062620 
     30 H          -0.960710    3.883383    0.421203 H         1 <1>         0.064350 
     31 H           2.479045    0.850669   -0.649144 H         1 <1>         0.065603 
     32 H          -6.186424   -0.790584    2.335131 H         1 <1>         0.027427 
     33 H          -7.147509   -1.904791    1.334069 H         1 <1>         0.027427 
     34 H          -5.575982   -2.434106    2.011272 H         1 <1>         0.027427 
     35 H          -4.297436   -2.483834   -0.932001 H         1 <1>         0.027427 
     36 H          -5.934992   -3.067945   -0.560305 H         1 <1>         0.027427 
     37 H          -5.729039   -1.757420   -1.737139 H         1 <1>         0.027427 
     38 H           2.981072   -1.912047    0.589442 H         1 <1>         0.062539 
     39 H          -1.264781   -1.847674   -0.661512 H         1 <1>         0.217352 
     40 H          -4.244009    3.144754    0.333012 H         1 <1>         0.217326 
     41 H           4.726810   -0.859002   -2.135507 H         1 <1>         0.062503 
     42 H           7.337336    0.674862    1.909790 H         1 <1>         0.066920 
     43 H           7.106591   -0.159750   -2.387319 H         1 <1>         0.064340 
     44 H           4.024343   -0.568084    2.571915 H         1 <1>         0.217339 
     45 H           9.145971    1.074273    0.367765 H         1 <1>         0.217315 
@<TRIPOS>BOND
     1    8    1 1    
     2    1   39 1    
     3   10    2 1    
     4    2   40 1    
     5   15    3 2    
     6   21    4 1    
     7    4   44 1    
     8   25    5 1    
     9    5   45 1    
    10    6    7 1    
    11    8    6 1    
    12    6   10 2    
    13    7   11 1    
    14    7   26 1    
    15    7   27 1    
    16    9    8 2    
    17    9   12 1    
    18   15    9 1    
    19   13   10 1    
    20   11   14 2    
    21   11   28 1    
    22   12   13 2    
    23   12   29 1    
    24   13   30 1    
    25   14   17 1    
    26   14   18 1    
    27   16   15 1    
    28   20   16 2    
    29   16   31 1    
    30   17   32 1    
    31   17   33 1    
    32   17   34 1    
    33   18   35 1    
    34   18   36 1    
    35   18   37 1    
    36   19   20 1    
    37   21   19 2    
    38   19   22 1    
    39   20   38 1    
    40   23   21 1    
    41   22   24 2    
    42   22   41 1    
    43   23   25 2    
    44   23   42 1    
    45   24   25 1    
    46   24   43 1    
@<TRIPOS>SUBSTRUCTURE
     1 ****        6 TEMP              0 ****  ****    0 ROOT 
@<TRIPOS>NORMAL
@<TRIPOS>FF_PBC
FORCE_FIELD_SETUP_FEATURE Force Field Setup information
v1.0  0 0.000000 0.000000 0.000000 0.000000 0.000000 0.000000 NONE 0 0 0 0 1 0 0 0 0 0 0 0 0
