@<TRIPOS>MOLECULE
MOL002046
   20    19     1     1     0
SMALL
GASTEIGER


@<TRIPOS>ATOM
      1 C          -1.801766   -2.802467    0.000081 C.3       1 <1>        -0.065276 
      2 C          -0.460466   -2.023664   -0.000136 C.3       1 <1>        -0.055899 
      3 C          -0.697509   -0.488746    0.000091 C.3       1 <1>        -0.052845 
      4 C           0.646615    0.289800   -0.000090 C.3       1 <1>        -0.044069 
      5 C           0.413795    1.824986    0.000119 C.3       1 <1>         0.033006 
      6 C           1.703521    2.604374   -0.000029 C.2       1 <1>         0.259588 
      7 O           1.565703    3.931789    0.000055 O.3       1 <1>        -0.331267 
      8 O           2.797409    2.061046   -0.000210 O.2       1 <1>        -0.265177 
      9 H          -1.610215   -3.887211   -0.000093 H         1 <1>         0.022978 
     10 H          -2.391957   -2.551594    0.895316 H         1 <1>         0.022978 
     11 H          -2.392363   -2.551388   -0.894824 H         1 <1>         0.022978 
     12 H           0.120352   -2.307349   -0.893740 H         1 <1>         0.026265 
     13 H           0.120755   -2.307554    0.893143 H         1 <1>         0.026265 
     14 H          -1.280538   -0.211067    0.893669 H         1 <1>         0.026531 
     15 H          -1.280901   -0.210861   -0.893183 H         1 <1>         0.026531 
     16 H           1.230359    0.013789   -0.894020 H         1 <1>         0.027004 
     17 H           1.230706    0.013597    0.893561 H         1 <1>         0.027004 
     18 H          -0.160607    2.114408    0.894005 H         1 <1>         0.036600 
     19 H          -0.160947    2.114602   -0.893484 H         1 <1>         0.036600 
     20 H           2.407953    4.373712   -0.000033 H         1 <1>         0.220208 
@<TRIPOS>BOND
     1    1    2 1    
     2    1    9 1    
     3    1   10 1    
     4    1   11 1    
     5    2    3 1    
     6    2   12 1    
     7    2   13 1    
     8    3    4 1    
     9    3   14 1    
    10    3   15 1    
    11    4    5 1    
    12    4   16 1    
    13    4   17 1    
    14    5    6 1    
    15    5   18 1    
    16    5   19 1    
    17    6    7 1    
    18    6    8 2    
    19    7   20 1    
@<TRIPOS>SUBSTRUCTURE
     1 ****        1 TEMP              0 ****  ****    0 ROOT 
@<TRIPOS>NORMAL
@<TRIPOS>FF_PBC
FORCE_FIELD_SETUP_FEATURE Force Field Setup information
v1.0  0 0.000000 0.000000 0.000000 0.000000 0.000000 0.000000 NONE 0 0 0 0 1 0 0 0 0 0 0 0 0
