@<TRIPOS>MOLECULE
MOL004419
   42    44     1     1     0
SMALL
GASTEIGER


@<TRIPOS>ATOM
      1 O           0.331195    2.726018   -2.220718 O.3       1 <1>        -0.388563 
      2 C           0.489236   -0.961606    0.444325 C.3       1 <1>        -0.028878 
      3 C           1.200139   -1.193846    1.810730 C.3       1 <1>        -0.028416 
      4 C           1.888091   -0.351621    0.707759 C.3       1 <1>        -0.031926 
      5 C          -0.755209   -0.030179    0.338276 C.3       1 <1>        -0.029436 
      6 C          -0.694954    1.250467   -0.571617 C.3       1 <1>        -0.009033 
      7 C           1.932296    1.189797    0.766055 C.3       1 <1>        -0.046841 
      8 C          -2.059054   -0.789827   -0.057933 C.3       1 <1>        -0.040417 
      9 C           0.554759    1.502333   -1.487991 C.3       1 <1>         0.066402 
     10 C          -2.082186    1.300146   -1.278983 C.3       1 <1>        -0.047092 
     11 C           1.851113    1.803189   -0.657068 C.3       1 <1>        -0.023716 
     12 C           1.733079   -2.639516    1.994364 C.3       1 <1>        -0.059280 
     13 C           0.809264   -0.499932    3.150069 C.3       1 <1>        -0.059280 
     14 C          -2.988763    0.397714   -0.413609 C.3       1 <1>        -0.049841 
     15 C          -1.935639   -1.787285   -1.250538 C.3       1 <1>        -0.062145 
     16 C           0.829511    0.409961   -2.565374 C.3       1 <1>        -0.035809 
     17 H           0.558928   -1.813081   -0.244674 H         1 <1>         0.031172 
     18 H           2.716109   -0.848862    0.176220 H         1 <1>         0.030897 
     19 H          -0.993209    0.316756    1.352927 H         1 <1>         0.030984 
     20 H          -0.715317    2.135460    0.089098 H         1 <1>         0.033119 
     21 H           2.899231    1.456661    1.222767 H         1 <1>         0.026908 
     22 H           1.154365    1.635304    1.391659 H         1 <1>         0.026908 
     23 H          -2.470829   -1.368266    0.791353 H         1 <1>         0.030098 
     24 H          -2.497482    2.316147   -1.359454 H         1 <1>         0.026900 
     25 H          -2.048859    0.887020   -2.291514 H         1 <1>         0.026900 
     26 H           2.745563    1.494449   -1.221993 H         1 <1>         0.029291 
     27 H           1.934599    2.893984   -0.513244 H         1 <1>         0.029291 
     28 H           2.399440   -2.682892    2.868000 H         1 <1>         0.023516 
     29 H           0.873757   -3.300319    2.176360 H         1 <1>         0.023516 
     30 H           2.284898   -3.013722    1.120035 H         1 <1>         0.023516 
     31 H           0.341603    0.488897    3.120887 H         1 <1>         0.023516 
     32 H           0.121422   -1.167911    3.689127 H         1 <1>         0.023516 
     33 H           1.727085   -0.398109    3.748511 H         1 <1>         0.023516 
     34 H          -3.915466    0.095898   -0.928190 H         1 <1>         0.026804 
     35 H          -3.268292    0.936547    0.507560 H         1 <1>         0.026804 
     36 H          -2.940754   -2.062574   -1.605591 H         1 <1>         0.023250 
     37 H          -1.439331   -2.721969   -0.947087 H         1 <1>         0.023250 
     38 H          -1.382028   -1.371500   -2.099798 H         1 <1>         0.023250 
     39 H           1.672196    0.736028   -3.196562 H         1 <1>         0.025730 
     40 H          -0.026069    0.272168   -3.241714 H         1 <1>         0.025730 
     41 H           1.095885   -0.561802   -2.129911 H         1 <1>         0.025730 
     42 H          -0.406175    2.703235   -2.818365 H         1 <1>         0.210159 
@<TRIPOS>BOND
     1    9    1 1    
     2    1   42 1    
     3    2    3 1    
     4    2    4 1    
     5    5    2 1    
     6    2   17 1    
     7    4    3 1    
     8    3   12 1    
     9    3   13 1    
    10    4    7 1    
    11    4   18 1    
    12    6    5 1    
    13    5    8 1    
    14    5   19 1    
    15    6    9 1    
    16    6   10 1    
    17    6   20 1    
    18    7   11 1    
    19    7   21 1    
    20    7   22 1    
    21    8   14 1    
    22    8   15 1    
    23    8   23 1    
    24    9   11 1    
    25    9   16 1    
    26   10   14 1    
    27   10   24 1    
    28   10   25 1    
    29   11   26 1    
    30   11   27 1    
    31   12   28 1    
    32   12   29 1    
    33   12   30 1    
    34   13   31 1    
    35   13   32 1    
    36   13   33 1    
    37   14   34 1    
    38   14   35 1    
    39   15   36 1    
    40   15   37 1    
    41   15   38 1    
    42   16   39 1    
    43   16   40 1    
    44   16   41 1    
@<TRIPOS>SUBSTRUCTURE
     1 ****        2 TEMP              0 ****  ****    0 ROOT 
@<TRIPOS>NORMAL
@<TRIPOS>FF_PBC
FORCE_FIELD_SETUP_FEATURE Force Field Setup information
v1.0  0 0.000000 0.000000 0.000000 0.000000 0.000000 0.000000 NONE 0 0 0 0 1 0 0 0 0 0 0 0 0
