@<TRIPOS>MOLECULE
MOL005274
   20    19     1     1     0
SMALL
GASTEIGER


@<TRIPOS>ATOM
      1 C          -0.439649    0.064346    0.012115 C.3       1 <1>        -0.037950 
      2 C           0.955926    0.772357   -0.019753 C.3       1 <1>        -0.050972 
      3 C          -1.540653    1.168361    0.049226 C.3       1 <1>        -0.060070 
      4 C          -0.660547   -0.808835   -1.258655 C.3       1 <1>        -0.060070 
      5 C          -0.593412   -0.827037    1.280151 C.3       1 <1>        -0.060070 
      6 C           2.197012   -0.161697   -0.059300 C.3       1 <1>        -0.064800 
      7 H           1.050544    1.414523    0.871610 H         1 <1>         0.026770 
      8 H           1.003411    1.427135   -0.905726 H         1 <1>         0.026770 
      9 H          -2.547157    0.722947    0.073540 H         1 <1>         0.023490 
     10 H          -1.427491    1.801189    0.942932 H         1 <1>         0.023490 
     11 H          -1.475745    1.813053   -0.840813 H         1 <1>         0.023490 
     12 H          -1.687728   -1.204266   -1.279220 H         1 <1>         0.023490 
     13 H           0.023956   -1.668828   -1.281398 H         1 <1>         0.023490 
     14 H          -0.502954   -0.212066   -2.170051 H         1 <1>         0.023490 
     15 H          -0.391040   -0.242431    2.190546 H         1 <1>         0.023490 
     16 H          -1.617253   -1.225889    1.347333 H         1 <1>         0.023490 
     17 H           0.093406   -1.685105    1.256015 H         1 <1>         0.023490 
     18 H           3.112998    0.450364   -0.080673 H         1 <1>         0.022994 
     19 H           2.198702   -0.793730   -0.958915 H         1 <1>         0.022994 
     20 H           2.247774   -0.804490    0.831237 H         1 <1>         0.022994 
@<TRIPOS>BOND
     1    1    2 1    
     2    1    3 1    
     3    1    4 1    
     4    1    5 1    
     5    2    6 1    
     6    2    7 1    
     7    2    8 1    
     8    3    9 1    
     9    3   10 1    
    10    3   11 1    
    11    4   12 1    
    12    4   13 1    
    13    4   14 1    
    14    5   15 1    
    15    5   16 1    
    16    5   17 1    
    17    6   18 1    
    18    6   19 1    
    19    6   20 1    
@<TRIPOS>SUBSTRUCTURE
     1 ****        1 TEMP              0 ****  ****    0 ROOT 
@<TRIPOS>NORMAL
@<TRIPOS>FF_PBC
FORCE_FIELD_SETUP_FEATURE Force Field Setup information
v1.0  0 0.000000 0.000000 0.000000 0.000000 0.000000 0.000000 NONE 0 0 0 0 1 0 0 0 0 0 0 0 0
