@<TRIPOS>MOLECULE
MOL004954
   57    59     1     1     0
SMALL
GASTEIGER


@<TRIPOS>ATOM
      1 C          -1.729268   -1.034667    0.109226 C.ar      1 <1>         0.081984 
      2 C          -1.289502   -2.310078   -0.515572 C.ar      1 <1>        -0.012834 
      3 C          -0.144662   -2.319551   -1.325866 C.ar      1 <1>        -0.042838 
      4 C           0.627489   -1.073932   -1.545272 C.ar      1 <1>         0.048149 
      5 C           0.213976    0.127859   -0.951107 C.ar      1 <1>         0.093354 
      6 C          -1.010706    0.149590   -0.114447 C.ar      1 <1>         0.016963 
      7 C           1.871999   -1.067092   -2.399482 C.2       1 <1>         0.168446 
      8 C           2.677232    0.196683   -2.491248 C.3       1 <1>         0.041477 
      9 C           1.717132    1.401865   -2.352801 C.3       1 <1>         0.097171 
     10 O           0.955697    1.298947   -1.135707 O.3       1 <1>        -0.335388 
     11 C           2.530927    2.701734   -2.304276 C.ar      1 <1>        -0.017820 
     12 O           2.220988   -2.070749   -3.000347 O.2       1 <1>        -0.291871 
     13 C           2.594485    3.611248   -3.475888 C.ar      1 <1>        -0.053661 
     14 C           3.333173    4.799638   -3.405528 C.ar      1 <1>        -0.031601 
     15 C           4.064946    5.160627   -2.169462 C.ar      1 <1>         0.072600 
     16 C           4.015404    4.295546   -1.063271 C.ar      1 <1>        -0.031601 
     17 C           3.227454    3.042446   -1.135223 C.ar      1 <1>        -0.053661 
     18 O          -2.861835   -1.000902    0.920475 O.3       1 <1>        -0.359186 
     19 C          -1.504108    1.461259    0.508188 C.3       1 <1>        -0.004324 
     20 C          -1.283597    1.474507    2.001269 C.2       1 <1>        -0.080815 
     21 C          -1.612507    2.502227    2.801873 C.2       1 <1>        -0.079306 
     22 C          -1.362584    2.445578    4.293348 C.3       1 <1>        -0.044040 
     23 C          -2.247609    3.785865    2.307963 C.3       1 <1>        -0.044040 
     24 O           4.790082    6.354741   -2.131297 O.3       1 <1>        -0.359832 
     25 C          -2.062309   -3.619235   -0.296858 C.3       1 <1>        -0.006780 
     26 C          -1.364342   -4.457422    0.750140 C.2       1 <1>        -0.080898 
     27 C          -1.805874   -5.641101    1.206138 C.2       1 <1>        -0.079307 
     28 C          -1.042891   -6.408215    2.265876 C.3       1 <1>        -0.044040 
     29 C          -3.073789   -6.312002    0.723237 C.3       1 <1>        -0.044040 
     30 H           0.183950   -3.241876   -1.793899 H         1 <1>         0.062891 
     31 H           3.210495    0.246773   -3.452841 H         1 <1>         0.037398 
     32 H           3.413710    0.195908   -1.674224 H         1 <1>         0.037398 
     33 H           1.010260    1.428461   -3.199702 H         1 <1>         0.065571 
     34 H           2.069630    3.359478   -4.392329 H         1 <1>         0.062190 
     35 H           3.377512    5.467509   -4.259826 H         1 <1>         0.064329 
     36 H           4.548710    4.532926   -0.148858 H         1 <1>         0.064329 
     37 H           3.190998    2.385845   -0.271606 H         1 <1>         0.062190 
     38 H          -2.760262   -1.579622    1.667035 H         1 <1>         0.217338 
     39 H          -0.975149    2.309838    0.048522 H         1 <1>         0.035722 
     40 H          -2.578835    1.559869    0.287264 H         1 <1>         0.035722 
     41 H          -0.827402    0.584691    2.437313 H         1 <1>         0.057473 
     42 H          -0.909138    1.499105    4.621731 H         1 <1>         0.027427 
     43 H          -2.315420    2.569271    4.828452 H         1 <1>         0.027427 
     44 H          -0.687601    3.265128    4.580058 H         1 <1>         0.027427 
     45 H          -2.472869    3.800586    1.233983 H         1 <1>         0.027427 
     46 H          -3.192682    3.955131    2.844548 H         1 <1>         0.027427 
     47 H          -1.570135    4.626576    2.517806 H         1 <1>         0.027427 
     48 H           5.234520    6.517891   -1.307231 H         1 <1>         0.217313 
     49 H          -3.096063   -3.396689    0.008243 H         1 <1>         0.035640 
     50 H          -2.097097   -4.175728   -1.247215 H         1 <1>         0.035640 
     51 H          -0.433235   -4.056078    1.153314 H         1 <1>         0.057472 
     52 H          -0.131338   -5.894362    2.605429 H         1 <1>         0.027427 
     53 H          -1.692545   -6.560457    3.140201 H         1 <1>         0.027427 
     54 H          -0.750429   -7.391521    1.868310 H         1 <1>         0.027427 
     55 H          -3.600378   -5.765359   -0.070299 H         1 <1>         0.027427 
     56 H          -2.827677   -7.310419    0.331302 H         1 <1>         0.027427 
     57 H          -3.766234   -6.428686    1.570439 H         1 <1>         0.027427 
@<TRIPOS>BOND
     1    1    2 1    
     2    1    6 2    
     3    1   18 1    
     4    2    3 2    
     5    2   25 1    
     6    3    4 1    
     7    3   30 1    
     8    4    5 2    
     9    4    7 1    
    10    5    6 1    
    11    5   10 1    
    12    6   19 1    
    13    7    8 1    
    14    7   12 2    
    15    8    9 1    
    16    8   31 1    
    17    8   32 1    
    18    9   10 1    
    19    9   11 1    
    20    9   33 1    
    21   11   13 1    
    22   11   17 2    
    23   13   14 2    
    24   13   34 1    
    25   14   15 1    
    26   14   35 1    
    27   15   16 2    
    28   15   24 1    
    29   16   17 1    
    30   16   36 1    
    31   17   37 1    
    32   18   38 1    
    33   19   20 1    
    34   19   39 1    
    35   19   40 1    
    36   20   21 2    
    37   20   41 1    
    38   21   22 1    
    39   21   23 1    
    40   22   42 1    
    41   22   43 1    
    42   22   44 1    
    43   23   45 1    
    44   23   46 1    
    45   23   47 1    
    46   24   48 1    
    47   25   26 1    
    48   25   49 1    
    49   25   50 1    
    50   26   27 2    
    51   26   51 1    
    52   27   28 1    
    53   27   29 1    
    54   28   52 1    
    55   28   53 1    
    56   28   54 1    
    57   29   55 1    
    58   29   56 1    
    59   29   57 1    
@<TRIPOS>SUBSTRUCTURE
     1 ****        1 TEMP              0 ****  ****    0 ROOT 
@<TRIPOS>NORMAL
@<TRIPOS>FF_PBC
FORCE_FIELD_SETUP_FEATURE Force Field Setup information
v1.0  0 0.000000 0.000000 0.000000 0.000000 0.000000 0.000000 NONE 0 0 0 0 1 0 0 0 0 0 0 0 0
