@<TRIPOS>MOLECULE
MOL001952
   29    29     1     1     0
SMALL
GASTEIGER


@<TRIPOS>ATOM
      1 O          -3.250485   -0.913224    0.890553 O.3       1 <1>        -0.355384 
      2 O          -1.522370   -2.980123   -0.030420 O.3       1 <1>        -0.345243 
      3 O          -2.281518    1.851814    0.878521 O.3       1 <1>        -0.345243 
      4 O           4.419708    2.868272   -1.868939 O.3       1 <1>        -0.390992 
      5 C          -1.971352   -0.581150    0.435771 C.ar      1 <1>         0.132953 
      6 C          -1.075559   -1.658495   -0.050947 C.ar      1 <1>         0.108530 
      7 C          -1.504810    0.770700    0.428749 C.ar      1 <1>         0.108530 
      8 C           0.201452   -1.368505   -0.529239 C.ar      1 <1>        -0.021844 
      9 C          -0.138231    1.058515   -0.073533 C.ar      1 <1>        -0.021844 
     10 C           0.709492    0.024213   -0.542436 C.ar      1 <1>        -0.020213 
     11 C           2.114454    0.240184   -1.066089 C.2       1 <1>        -0.056223 
     12 C          -1.097848   -3.719401    1.126079 C.3       1 <1>         0.043137 
     13 C          -3.630182    1.706367    1.355178 C.3       1 <1>         0.043137 
     14 C           2.835932    1.357900   -0.907099 C.2       1 <1>        -0.058387 
     15 C           4.232379    1.501729   -1.460872 C.3       1 <1>         0.062691 
     16 H          -3.451958   -1.826188    0.709717 H         1 <1>         0.217502 
     17 H           5.295799    3.042862   -2.197270 H         1 <1>         0.209823 
     18 H           0.823752   -2.179075   -0.891158 H         1 <1>         0.065003 
     19 H           0.186287    2.091859   -0.071796 H         1 <1>         0.065003 
     20 H           2.565688   -0.591106   -1.608071 H         1 <1>         0.062106 
     21 H          -1.517545   -4.734053    1.064177 H         1 <1>         0.052871 
     22 H          -0.001102   -3.794224    1.165196 H         1 <1>         0.052871 
     23 H          -1.462500   -3.244084    2.048861 H         1 <1>         0.052871 
     24 H          -3.985067    2.707180    1.639718 H         1 <1>         0.052871 
     25 H          -4.296128    1.316650    0.570087 H         1 <1>         0.052871 
     26 H          -3.675813    1.063915    2.247475 H         1 <1>         0.052871 
     27 H           2.458962    2.219999   -0.357410 H         1 <1>         0.059478 
     28 H           4.396110    0.831326   -2.321297 H         1 <1>         0.060128 
     29 H           4.947100    1.241270   -0.662744 H         1 <1>         0.060128 
@<TRIPOS>BOND
     1    5    1 1    
     2    1   16 1    
     3    6    2 1    
     4    2   12 1    
     5    7    3 1    
     6    3   13 1    
     7   15    4 1    
     8    4   17 1    
     9    6    5 1    
    10    7    5 2    
    11    8    6 2    
    12    9    7 1    
    13   10    8 1    
    14    8   18 1    
    15   10    9 2    
    16    9   19 1    
    17   11   10 1    
    18   14   11 2    
    19   11   20 1    
    20   12   21 1    
    21   12   22 1    
    22   12   23 1    
    23   13   24 1    
    24   13   25 1    
    25   13   26 1    
    26   14   15 1    
    27   14   27 1    
    28   15   28 1    
    29   15   29 1    
@<TRIPOS>SUBSTRUCTURE
     1 ****        1 TEMP              0 ****  ****    0 ROOT 
@<TRIPOS>NORMAL
@<TRIPOS>FF_PBC
FORCE_FIELD_SETUP_FEATURE Force Field Setup information
v1.0  0 0.000000 0.000000 0.000000 0.000000 0.000000 0.000000 NONE 0 0 0 0 1 0 0 0 0 0 0 0 0
