@<TRIPOS>MOLECULE
MOL006953
   15    15     1     1     0
SMALL
GASTEIGER


@<TRIPOS>ATOM
      1 C          -1.771784   -1.034148    0.004613 C.2       1 <1>         0.309952 
      2 N          -0.614257   -1.717461   -0.067581 N.am      1 <1>        -0.236144 
      3 C           0.575874   -1.089045   -0.074811 C.2       1 <1>         0.248368 
      4 C           0.603158    0.384670   -0.000172 C.2       1 <1>         0.025507 
      5 C          -0.574385    1.017045    0.070097 C.2       1 <1>         0.005590 
      6 N          -1.729550    0.313503    0.071424 N.am      1 <1>        -0.275293 
      7 O          -2.839668   -1.624507    0.009336 O.2       1 <1>        -0.252085 
      8 O           1.622574   -1.712384   -0.141897 O.2       1 <1>        -0.270051 
      9 C           1.898148    1.163054   -0.000599 C.3       1 <1>        -0.033584 
     10 H          -0.638559   -2.716121   -0.117472 H         1 <1>         0.159388 
     11 H          -0.597204    2.107794    0.126413 H         1 <1>         0.078676 
     12 H          -2.602482    0.803381    0.124291 H         1 <1>         0.155820 
     13 H           2.777096    0.501550   -0.002430 H         1 <1>         0.027952 
     14 H           1.942230    1.801382   -0.895976 H         1 <1>         0.027952 
     15 H           1.948907    1.801085    0.894765 H         1 <1>         0.027952 
@<TRIPOS>BOND
     1    1    2 1    
     2    1    6 1    
     3    1    7 2    
     4    2    3 1    
     5    2   10 1    
     6    3    4 1    
     7    3    8 2    
     8    4    5 2    
     9    4    9 1    
    10    5    6 1    
    11    5   11 1    
    12    6   12 1    
    13    9   13 1    
    14    9   14 1    
    15    9   15 1    
@<TRIPOS>SUBSTRUCTURE
     1 ****        1 TEMP              0 ****  ****    0 ROOT 
@<TRIPOS>NORMAL
@<TRIPOS>FF_PBC
FORCE_FIELD_SETUP_FEATURE Force Field Setup information
v1.0  0 0.000000 0.000000 0.000000 0.000000 0.000000 0.000000 NONE 0 0 0 0 1 0 0 0 0 0 0 0 0
