@<TRIPOS>MOLECULE
MOL004641
   83    87     1     1     0
SMALL
GASTEIGER


@<TRIPOS>ATOM
      1 O           1.065838   -5.479954    3.399868 O.3       1 <1>        -0.391248 
      2 C          -0.193107    0.138867    1.995997 C.3       1 <1>        -0.030614 
      3 C          -0.662841    1.339589    1.198576 C.2       1 <1>        -0.083644 
      4 C          -0.691791    1.439104   -0.144412 C.2       1 <1>        -0.063151 
      5 C           3.986927   -4.574586    1.332149 C.3       1 <1>        -0.057190 
      6 C           0.229464   -2.396997    3.277451 C.3       1 <1>        -0.059009 
      7 O           0.518781    2.334622   -4.200699 O.3       1 <1>        -0.391114 
      8 C           0.855261    3.858375   -1.757657 C.3       1 <1>         0.052730 
      9 C          -3.756571    4.716300    0.224249 C.3       1 <1>        -0.059793 
     10 C          -4.683229    3.961475   -1.992189 C.3       1 <1>        -0.059793 
     11 C           1.658304   -5.267675    2.104690 C.3       1 <1>         0.060637 
     12 C           2.701409   -4.095233    2.101107 C.3       1 <1>        -0.005589 
     13 C           2.083115   -2.769031    1.474828 C.3       1 <1>        -0.027836 
     14 C           0.557583   -2.493642    1.747697 C.3       1 <1>        -0.024959 
     15 C           0.059734   -1.116742    1.101834 C.3       1 <1>        -0.025735 
     16 C           0.797698   -0.573783   -0.176137 C.3       1 <1>        -0.019291 
     17 C           1.386753   -1.803217   -0.919550 C.3       1 <1>        -0.046267 
     18 C           2.426961   -2.571551   -0.050886 C.3       1 <1>        -0.048609 
     19 C           0.567906   -5.057672    1.021803 C.3       1 <1>        -0.025831 
     20 C          -0.249560   -3.742396    1.206743 C.3       1 <1>        -0.044720 
     21 C          -0.237831    0.285821   -1.035449 C.3       1 <1>        -0.002789 
     22 C           0.425762    0.796779   -2.360468 C.3       1 <1>        -0.016610 
     23 C          -0.293620    1.979431   -3.063174 C.3       1 <1>         0.064286 
     24 C          -0.519068    3.197724   -2.109424 C.3       1 <1>         0.026309 
     25 C          -1.429329    4.250726   -2.840431 C.3       1 <1>        -0.041883 
     26 C          -2.353158    5.035779   -1.870305 C.3       1 <1>        -0.047178 
     27 C          -3.373815    4.091552   -1.153448 C.3       1 <1>        -0.034297 
     28 C          -2.753312    2.668253   -0.957475 C.3       1 <1>        -0.040648 
     29 C          -1.210114    2.722373   -0.789314 C.3       1 <1>        -0.008787 
     30 C           3.243063   -3.859814    3.556994 C.3       1 <1>        -0.057190 
     31 C           2.036419    0.331909    0.200678 C.3       1 <1>        -0.058490 
     32 C          -1.555742   -0.485154   -1.420236 C.3       1 <1>        -0.055242 
     33 O           0.669737    5.099345   -1.050701 O.3       1 <1>        -0.394355 
     34 H           0.444267   -6.200752    3.432158 H         1 <1>         0.209800 
     35 H          -0.990786   -0.022726    2.737399 H         1 <1>         0.031042 
     36 H           0.714280    0.424983    2.547446 H         1 <1>         0.031042 
     37 H          -0.999518    2.181239    1.807279 H         1 <1>         0.057198 
     38 H           4.675833   -3.734201    1.157910 H         1 <1>         0.023587 
     39 H           4.540355   -5.331938    1.909642 H         1 <1>         0.023587 
     40 H           3.768210   -5.060040    0.371225 H         1 <1>         0.023587 
     41 H          -0.827815   -2.142196    3.436534 H         1 <1>         0.023525 
     42 H           0.853194   -1.645424    3.782617 H         1 <1>         0.023525 
     43 H           0.343012   -3.341047    3.809648 H         1 <1>         0.023525 
     44 H           0.138337    3.007334   -4.756736 H         1 <1>         0.209802 
     45 H           1.454708    3.191036   -1.122946 H         1 <1>         0.056353 
     46 H           1.426596    4.062674   -2.678287 H         1 <1>         0.056353 
     47 H          -4.535189    4.119419    0.723773 H         1 <1>         0.023499 
     48 H          -4.144949    5.737099    0.084919 H         1 <1>         0.023499 
     49 H          -2.888197    4.769679    0.897551 H         1 <1>         0.023499 
     50 H          -5.189744    4.934671   -2.083678 H         1 <1>         0.023499 
     51 H          -5.378204    3.258390   -1.507407 H         1 <1>         0.023499 
     52 H          -4.475359    3.591658   -3.007189 H         1 <1>         0.023499 
     53 H           2.180461   -6.217303    1.884002 H         1 <1>         0.059852 
     54 H           2.599456   -1.973176    2.025218 H         1 <1>         0.031210 
     55 H          -0.971505   -1.379216    0.852752 H         1 <1>         0.031460 
     56 H           1.890408   -1.492343   -1.848780 H         1 <1>         0.027096 
     57 H           0.599615   -2.497153   -1.230399 H         1 <1>         0.027096 
     58 H           3.401917   -2.060066   -0.122653 H         1 <1>         0.026846 
     59 H           2.551246   -3.509678   -0.601227 H         1 <1>         0.026846 
     60 H           1.050136   -5.074057    0.034715 H         1 <1>         0.029037 
     61 H          -0.122540   -5.918429    1.028228 H         1 <1>         0.029037 
     62 H          -1.084528   -3.970520    1.889882 H         1 <1>         0.027149 
     63 H          -0.737071   -3.557951    0.238980 H         1 <1>         0.027149 
     64 H           1.454792    1.136691   -2.214270 H         1 <1>         0.029875 
     65 H           0.471994   -0.034599   -3.081961 H         1 <1>         0.029875 
     66 H          -1.252023    1.623556   -3.468908 H         1 <1>         0.059982 
     67 H          -0.805665    4.965022   -3.402630 H         1 <1>         0.027247 
     68 H          -2.097397    3.774715   -3.573837 H         1 <1>         0.027247 
     69 H          -2.894648    5.821052   -2.423115 H         1 <1>         0.027063 
     70 H          -1.721985    5.559146   -1.137381 H         1 <1>         0.027063 
     71 H          -2.980225    2.039398   -1.827774 H         1 <1>         0.027632 
     72 H          -3.216247    2.180810   -0.084290 H         1 <1>         0.027632 
     73 H          -1.030771    3.522935   -0.055987 H         1 <1>         0.035286 
     74 H           2.520488   -3.422103    4.249944 H         1 <1>         0.023587 
     75 H           3.569885   -4.810741    4.006497 H         1 <1>         0.023587 
     76 H           4.110358   -3.180989    3.541775 H         1 <1>         0.023587 
     77 H           2.565779   -0.000319    1.095418 H         1 <1>         0.023542 
     78 H           2.798639    0.355789   -0.591333 H         1 <1>         0.023542 
     79 H           1.770159    1.375247    0.404803 H         1 <1>         0.023542 
     80 H          -1.373070   -1.540674   -1.648063 H         1 <1>         0.023830 
     81 H          -2.048978   -0.088668   -2.311730 H         1 <1>         0.023830 
     82 H          -2.323001   -0.436802   -0.632201 H         1 <1>         0.023830 
     83 H           1.485427    5.535420   -0.820966 H         1 <1>         0.209421 
@<TRIPOS>BOND
     1   11    1 1    
     2    1   34 1    
     3    3    2 1    
     4    2   15 1    
     5    2   35 1    
     6    2   36 1    
     7    4    3 2    
     8    3   37 1    
     9    4   21 1    
    10   29    4 1    
    11   12    5 1    
    12    5   38 1    
    13    5   39 1    
    14    5   40 1    
    15   14    6 1    
    16    6   41 1    
    17    6   42 1    
    18    6   43 1    
    19   23    7 1    
    20    7   44 1    
    21   24    8 1    
    22    8   33 1    
    23    8   45 1    
    24    8   46 1    
    25   27    9 1    
    26    9   47 1    
    27    9   48 1    
    28    9   49 1    
    29   27   10 1    
    30   10   50 1    
    31   10   51 1    
    32   10   52 1    
    33   12   11 1    
    34   19   11 1    
    35   11   53 1    
    36   13   12 1    
    37   12   30 1    
    38   14   13 1    
    39   18   13 1    
    40   13   54 1    
    41   15   14 1    
    42   14   20 1    
    43   16   15 1    
    44   15   55 1    
    45   16   17 1    
    46   21   16 1    
    47   16   31 1    
    48   17   18 1    
    49   17   56 1    
    50   17   57 1    
    51   18   58 1    
    52   18   59 1    
    53   20   19 1    
    54   19   60 1    
    55   19   61 1    
    56   20   62 1    
    57   20   63 1    
    58   22   21 1    
    59   21   32 1    
    60   23   22 1    
    61   22   64 1    
    62   22   65 1    
    63   24   23 1    
    64   23   66 1    
    65   25   24 1    
    66   24   29 1    
    67   26   25 1    
    68   25   67 1    
    69   25   68 1    
    70   26   27 1    
    71   26   69 1    
    72   26   70 1    
    73   27   28 1    
    74   28   29 1    
    75   28   71 1    
    76   28   72 1    
    77   29   73 1    
    78   30   74 1    
    79   30   75 1    
    80   30   76 1    
    81   31   77 1    
    82   31   78 1    
    83   31   79 1    
    84   32   80 1    
    85   32   81 1    
    86   32   82 1    
    87   33   83 1    
@<TRIPOS>SUBSTRUCTURE
     1 ****        1 TEMP              0 ****  ****    0 ROOT 
@<TRIPOS>NORMAL
@<TRIPOS>FF_PBC
FORCE_FIELD_SETUP_FEATURE Force Field Setup information
v1.0  0 0.000000 0.000000 0.000000 0.000000 0.000000 0.000000 NONE 0 0 0 0 1 0 0 0 0 0 0 0 0
