@<TRIPOS>MOLECULE
MOL000263
   81    85     1     1     0
SMALL
GASTEIGER


@<TRIPOS>ATOM
      1 C          -0.317911   -0.704871    0.491284 C.3       1 <1>        -0.019372 
      2 C           1.109835   -0.359634   -0.132651 C.3       1 <1>        -0.005095 
      3 C          -1.443204   -0.121762   -0.436445 C.3       1 <1>        -0.025736 
      4 C          -0.525677   -2.256132    0.595417 C.3       1 <1>        -0.046268 
      5 C          -0.414069   -0.058533    1.923300 C.3       1 <1>        -0.058491 
      6 C           1.236267    1.156585   -0.059467 C.2       1 <1>        -0.062908 
      7 C           2.246380   -1.155289    0.602959 C.3       1 <1>        -0.042415 
      8 C           1.265300   -0.672828   -1.666141 C.3       1 <1>        -0.055323 
      9 C          -2.945619   -0.548953   -0.144856 C.3       1 <1>        -0.024959 
     10 C          -1.204130    1.407089   -0.686372 C.3       1 <1>        -0.030614 
     11 C          -1.981941   -2.710312    0.899769 C.3       1 <1>        -0.048609 
     12 C           2.575694    1.808757    0.264082 C.3       1 <1>        -0.004222 
     13 C           0.168626    1.925736   -0.322518 C.2       1 <1>        -0.083635 
     14 C           3.639238   -0.465705    0.590661 C.3       1 <1>        -0.036973 
     15 C          -3.000361   -2.124032   -0.125172 C.3       1 <1>        -0.027836 
     16 C          -3.851818   -0.026263   -1.325366 C.3       1 <1>        -0.044720 
     17 C          -3.507525    0.058458    1.190886 C.3       1 <1>        -0.059009 
     18 C           3.543213    0.977558    1.163247 C.3       1 <1>         0.062460 
     19 C           3.218382    2.257457   -1.084966 C.3       1 <1>        -0.040331 
     20 C          -4.429195   -2.802948   -0.067216 C.3       1 <1>        -0.005589 
     21 C          -4.832266   -1.076925   -1.921830 C.3       1 <1>        -0.025831 
     22 C           4.944676    1.661992    1.250290 C.3       1 <1>        -0.037288 
     23 C           3.081504    0.937987    2.613317 C.2       1 <1>         0.266382 
     24 C           4.593304    2.976129   -0.944833 C.3       1 <1>        -0.034278 
     25 C          -5.499272   -1.933784   -0.817928 C.3       1 <1>         0.060637 
     26 C          -4.373116   -4.200003   -0.783189 C.3       1 <1>        -0.057190 
     27 C          -4.920593   -3.097098    1.386124 C.3       1 <1>        -0.057190 
     28 C           5.544790    2.057830   -0.124085 C.3       1 <1>        -0.046865 
     29 O           2.599515    2.079170    3.114065 O.3       1 <1>        -0.330836 
     30 O           3.154184   -0.067651    3.303158 O.2       1 <1>        -0.264536 
     31 C           5.205880    3.184413   -2.365345 C.3       1 <1>        -0.059792 
     32 C           4.441652    4.388373   -0.296265 C.3       1 <1>        -0.059792 
     33 O          -6.271134   -1.109429    0.074635 O.3       1 <1>        -0.391248 
     34 H          -1.253042   -0.600587   -1.406595 H         1 <1>         0.031460 
     35 H           2.358438    2.738670    0.809369 H         1 <1>         0.035619 
     36 H          -2.594138   -2.430568   -1.102157 H         1 <1>         0.031210 
     37 H           0.115912   -2.687015    1.379504 H         1 <1>         0.027096 
     38 H          -0.247872   -2.746363   -0.346748 H         1 <1>         0.027096 
     39 H          -0.869679   -0.728203    2.663202 H         1 <1>         0.023542 
     40 H           0.558464    0.213737    2.344392 H         1 <1>         0.023542 
     41 H          -0.982928    0.879751    1.919729 H         1 <1>         0.023542 
     42 H           2.351117   -2.151656    0.142014 H         1 <1>         0.027403 
     43 H           1.998622   -1.353876    1.650991 H         1 <1>         0.027403 
     44 H           0.906091   -1.672754   -1.937463 H         1 <1>         0.023829 
     45 H           0.745376    0.055838   -2.306829 H         1 <1>         0.023829 
     46 H           2.314662   -0.650300   -1.980939 H         1 <1>         0.023829 
     47 H          -1.358405    1.667473   -1.746084 H         1 <1>         0.031042 
     48 H          -1.905878    2.025735   -0.117458 H         1 <1>         0.031042 
     49 H          -2.259003   -2.464331    1.931601 H         1 <1>         0.026846 
     50 H          -1.978502   -3.810077    0.850050 H         1 <1>         0.026846 
     51 H           0.273023    3.012096   -0.290327 H         1 <1>         0.057198 
     52 H           4.046921   -0.464239   -0.427437 H         1 <1>         0.027586 
     53 H           4.336753   -1.061764    1.203039 H         1 <1>         0.027586 
     54 H          -4.436197    0.848911   -0.996847 H         1 <1>         0.027149 
     55 H          -3.263646    0.319815   -2.189032 H         1 <1>         0.027149 
     56 H          -3.364237    1.141149    1.267255 H         1 <1>         0.023525 
     57 H          -4.588238   -0.071260    1.267037 H         1 <1>         0.023525 
     58 H          -3.088652   -0.380311    2.098280 H         1 <1>         0.023525 
     59 H           2.524687    2.928681   -1.617218 H         1 <1>         0.027642 
     60 H           3.363789    1.383004   -1.728896 H         1 <1>         0.027642 
     61 H          -4.302380   -1.744152   -2.621017 H         1 <1>         0.029037 
     62 H          -5.608598   -0.557946   -2.509695 H         1 <1>         0.029037 
     63 H           4.884890    2.569572    1.870640 H         1 <1>         0.027577 
     64 H           5.647900    0.982205    1.760072 H         1 <1>         0.027577 
     65 H          -6.240921   -2.596893   -1.300190 H         1 <1>         0.059852 
     66 H          -5.342944   -4.717701   -0.715994 H         1 <1>         0.023587 
     67 H          -3.627754   -4.872037   -0.337469 H         1 <1>         0.023587 
     68 H          -4.130420   -4.096040   -1.851482 H         1 <1>         0.023587 
     69 H          -4.306285   -3.870688    1.870034 H         1 <1>         0.023587 
     70 H          -4.904479   -2.211361    2.030689 H         1 <1>         0.023587 
     71 H          -5.956769   -3.468674    1.362040 H         1 <1>         0.023587 
     72 H           6.504937    2.575607    0.036669 H         1 <1>         0.027072 
     73 H           5.765020    1.142454   -0.694332 H         1 <1>         0.027072 
     74 H           2.329828    1.987205    4.021337 H         1 <1>         0.220226 
     75 H           6.185153    3.682773   -2.296323 H         1 <1>         0.023499 
     76 H           4.544683    3.808448   -2.986202 H         1 <1>         0.023499 
     77 H           5.351511    2.224900   -2.885061 H         1 <1>         0.023499 
     78 H           5.425364    4.875894   -0.217535 H         1 <1>         0.023499 
     79 H           3.797228    5.024400   -0.922237 H         1 <1>         0.023499 
     80 H           4.003001    4.369583    0.708694 H         1 <1>         0.023499 
     81 H          -6.934541   -0.582052   -0.359767 H         1 <1>         0.209800 
@<TRIPOS>BOND
     1    1    2 1    
     2    1    3 1    
     3    1    4 1    
     4    1    5 1    
     5    2    6 1    
     6    2    7 1    
     7    2    8 1    
     8    3    9 1    
     9    3   10 1    
    10    3   34 1    
    11    4   11 1    
    12    4   37 1    
    13    4   38 1    
    14    5   39 1    
    15    5   40 1    
    16    5   41 1    
    17    6   12 1    
    18    6   13 2    
    19    7   14 1    
    20    7   42 1    
    21    7   43 1    
    22    8   44 1    
    23    8   45 1    
    24    8   46 1    
    25    9   15 1    
    26    9   16 1    
    27    9   17 1    
    28   10   13 1    
    29   10   47 1    
    30   10   48 1    
    31   11   15 1    
    32   11   49 1    
    33   11   50 1    
    34   12   18 1    
    35   12   19 1    
    36   12   35 1    
    37   13   51 1    
    38   14   18 1    
    39   14   52 1    
    40   14   53 1    
    41   15   20 1    
    42   15   36 1    
    43   16   21 1    
    44   16   54 1    
    45   16   55 1    
    46   17   56 1    
    47   17   57 1    
    48   17   58 1    
    49   18   22 1    
    50   18   23 1    
    51   19   24 1    
    52   19   59 1    
    53   19   60 1    
    54   20   25 1    
    55   20   26 1    
    56   20   27 1    
    57   21   25 1    
    58   21   61 1    
    59   21   62 1    
    60   22   28 1    
    61   22   63 1    
    62   22   64 1    
    63   23   29 1    
    64   23   30 2    
    65   24   28 1    
    66   24   31 1    
    67   24   32 1    
    68   25   33 1    
    69   25   65 1    
    70   26   66 1    
    71   26   67 1    
    72   26   68 1    
    73   27   69 1    
    74   27   70 1    
    75   27   71 1    
    76   28   72 1    
    77   28   73 1    
    78   29   74 1    
    79   31   75 1    
    80   31   76 1    
    81   31   77 1    
    82   32   78 1    
    83   32   79 1    
    84   32   80 1    
    85   33   81 1    
@<TRIPOS>SUBSTRUCTURE
     1 ****        1 TEMP              0 ****  ****    0 ROOT 
@<TRIPOS>NORMAL
@<TRIPOS>FF_PBC
FORCE_FIELD_SETUP_FEATURE Force Field Setup information
v1.0  0 0.000000 0.000000 0.000000 0.000000 0.000000 0.000000 NONE 0 0 0 0 1 0 0 0 0 0 0 0 0
