@<TRIPOS>MOLECULE
MOL002932
   37    39     1     1     0
SMALL
GASTEIGER


@<TRIPOS>ATOM
      1 O           0.240393   -0.026165    0.052652 O.3       1 <1>        -0.305041 
      2 O          -2.735669   -0.409907    0.006544 O.3       1 <1>        -0.342923 
      3 O          -4.436450    1.952894    0.031318 O.3       1 <1>        -0.345170 
      4 O          -0.506143    4.846060    0.139420 O.3       1 <1>        -0.358953 
      5 O           1.858596    3.689893    0.147422 O.2       1 <1>        -0.287016 
      6 O           0.585681   -2.665268    0.006141 O.3       1 <1>        -0.359161 
      7 C          -0.180271    2.441601    0.096144 C.ar      1 <1>         0.084493 
      8 C          -0.683947    1.050682    0.062043 C.ar      1 <1>         0.128733 
      9 C          -2.138973    0.856648    0.039351 C.ar      1 <1>         0.137043 
     10 C           1.592021    0.136360    0.073536 C.2       1 <1>         0.096433 
     11 C          -1.034979    3.554056    0.107020 C.ar      1 <1>         0.088490 
     12 C           1.314606    2.597613    0.118736 C.2       1 <1>         0.193596 
     13 C          -3.035210    2.052244    0.051400 C.ar      1 <1>         0.110696 
     14 C           2.115026    1.374430    0.105010 C.2       1 <1>         0.017005 
     15 C           2.513010   -1.084697    0.061261 C.ar      1 <1>         0.035278 
     16 C          -2.497249    3.334090    0.083698 C.ar      1 <1>         0.001492 
     17 C           1.961523   -2.470874    0.027239 C.ar      1 <1>         0.082185 
     18 C           3.959909   -0.991231    0.081253 C.ar      1 <1>        -0.049637 
     19 C           2.821746   -3.605051    0.015900 C.ar      1 <1>        -0.031275 
     20 C           4.836054   -2.186219    0.069015 C.ar      1 <1>        -0.060964 
     21 C           4.291006   -3.455235    0.037365 C.ar      1 <1>        -0.059290 
     22 C          -1.997141   -1.626193   -0.007522 C.3       1 <1>         0.043243 
     23 C          -5.149968    0.706987   -0.002279 C.3       1 <1>         0.043138 
     24 H           3.167377    1.627924    0.123926 H         1 <1>         0.068220 
     25 H          -3.173356    4.181710    0.091681 H         1 <1>         0.067015 
     26 H           4.489051   -0.052070    0.106147 H         1 <1>         0.062505 
     27 H           2.409117   -4.608058   -0.008914 H         1 <1>         0.064340 
     28 H           5.915166   -2.064052    0.085045 H         1 <1>         0.061779 
     29 H           4.930996   -4.332220    0.028330 H         1 <1>         0.061837 
     30 H          -1.159720    5.535958    0.144367 H         1 <1>         0.217342 
     31 H          -2.707344   -2.465179   -0.033211 H         1 <1>         0.052872 
     32 H          -1.378033   -1.661386   -0.915825 H         1 <1>         0.052872 
     33 H          -1.402014   -1.697122    0.914620 H         1 <1>         0.052872 
     34 H          -6.224139    0.942802   -0.011426 H         1 <1>         0.052871 
     35 H          -4.917113    0.138784   -0.915810 H         1 <1>         0.052871 
     36 H          -4.940309    0.103269    0.893927 H         1 <1>         0.052871 
     37 H           0.307622   -3.574033   -0.015914 H         1 <1>         0.217339 
@<TRIPOS>BOND
     1    1    8 1    
     2   10    1 1    
     3    9    2 1    
     4    2   22 1    
     5   13    3 1    
     6    3   23 1    
     7   11    4 1    
     8    4   30 1    
     9   12    5 2    
    10   17    6 1    
    11    6   37 1    
    12    8    7 1    
    13    7   11 2    
    14   12    7 1    
    15    8    9 2    
    16    9   13 1    
    17   10   14 2    
    18   15   10 1    
    19   11   16 1    
    20   14   12 1    
    21   13   16 2    
    22   14   24 1    
    23   15   17 1    
    24   15   18 2    
    25   16   25 1    
    26   17   19 2    
    27   18   20 1    
    28   18   26 1    
    29   19   21 1    
    30   19   27 1    
    31   20   21 2    
    32   20   28 1    
    33   21   29 1    
    34   22   31 1    
    35   22   32 1    
    36   22   33 1    
    37   23   34 1    
    38   23   35 1    
    39   23   36 1    
@<TRIPOS>SUBSTRUCTURE
     1 ****        1 TEMP              0 ****  ****    0 ROOT 
@<TRIPOS>NORMAL
@<TRIPOS>FF_PBC
FORCE_FIELD_SETUP_FEATURE Force Field Setup information
v1.0  0 0.000000 0.000000 0.000000 0.000000 0.000000 0.000000 NONE 0 0 0 0 1 0 0 0 0 0 0 0 0
