@<TRIPOS>MOLECULE
MOL002465
  107   108     1     1     0
SMALL
GASTEIGER


@<TRIPOS>ATOM
      1 O          -1.289468   -1.379611   -6.042260 O.3       1 <1>        -0.338137 
      2 O           2.354513   -1.210962   -5.620626 O.3       1 <1>        -0.346048 
      3 O          -1.144998    0.565771   -3.055261 O.3       1 <1>        -0.273693 
      4 O           3.323970   -2.629807   -7.204951 O.3       1 <1>        -0.340532 
      5 O          -1.333969   -1.321949   -1.804610 O.3       1 <1>        -0.358192 
      6 O          -0.350270   -3.043072   -4.012950 O.3       1 <1>        -0.383581 
      7 O          -3.493087   -1.367557   -6.279044 O.3       1 <1>        -0.346552 
      8 O          -3.104072   -2.469898   -3.775976 O.3       1 <1>        -0.356948 
      9 O          -3.639799   -0.288207   -3.322693 O.3       1 <1>        -0.356948 
     10 O           4.966685   -0.618316   -4.534483 O.3       1 <1>        -0.384104 
     11 O           6.163842   -3.123366   -5.101722 O.3       1 <1>        -0.386401 
     12 O           6.828553   -3.824104   -7.702212 O.3       1 <1>        -0.386488 
     13 O           5.044330   -5.946772   -7.396475 O.3       1 <1>        -0.392366 
     14 O           1.087321    0.789481   -3.050860 O.2       1 <1>        -0.264884 
     15 C          -1.268613   -0.876744   -3.171911 C.3       1 <1>         0.263834 
     16 C          -0.123680   -1.617848   -3.923947 C.3       1 <1>         0.142920 
     17 C          -0.062441   -1.057407   -5.365819 C.3       1 <1>         0.116211 
     18 C          -2.621342   -1.121946   -3.920964 C.3       1 <1>         0.276050 
     19 C          -2.462220   -0.793175   -5.442903 C.3       1 <1>         0.219598 
     20 C           1.105768   -1.736728   -6.120233 C.3       1 <1>         0.079657 
     21 C           3.477769   -2.070864   -5.886148 C.3       1 <1>         0.188012 
     22 C           4.781004   -1.236071   -5.826265 C.3       1 <1>         0.134113 
     23 C           5.980440   -2.161463   -6.158051 C.3       1 <1>         0.114061 
     24 C           5.754636   -2.883195   -7.515114 C.3       1 <1>         0.111896 
     25 C           4.355476   -3.564677   -7.567015 C.3       1 <1>         0.113005 
     26 C           4.243741   -4.910972   -6.794847 C.3       1 <1>         0.073015 
     27 C           0.008787    0.993465   -2.521150 C.2       1 <1>         0.264837 
     28 C          -4.839207   -0.938131   -5.992730 C.3       1 <1>         0.050600 
     29 C          -0.075315    1.752463   -1.218612 C.3       1 <1>         0.033290 
     30 C          -5.776394   -1.686102   -6.974222 C.3       1 <1>        -0.032204 
     31 C          -0.451593    0.732323   -0.110596 C.3       1 <1>        -0.044054 
     32 C          -0.246531    1.190322    1.356702 C.3       1 <1>        -0.052596 
     33 C          -0.620482    0.005939    2.295866 C.3       1 <1>        -0.053036 
     34 C          -7.262233   -1.289188   -6.780532 C.3       1 <1>        -0.063194 
     35 C          -0.422835    0.343338    3.794124 C.3       1 <1>        -0.052779 
     36 C          -0.783145   -0.877653    4.691215 C.3       1 <1>        -0.049616 
     37 C          -0.658137   -0.502459    6.190273 C.3       1 <1>        -0.034761 
     38 C          -0.636742    2.135031    9.932884 C.3       1 <1>        -0.052779 
     39 C          -0.614404    3.477432    9.147001 C.3       1 <1>        -0.053048 
     40 C          -0.848496    0.992040    8.904305 C.3       1 <1>        -0.049616 
     41 C          -1.024268   -1.618067    7.145045 C.2       1 <1>        -0.087932 
     42 C          -0.349888    4.724278   10.029019 C.3       1 <1>        -0.053065 
     43 C          -0.775083   -0.449104    9.465196 C.3       1 <1>        -0.034761 
     44 C          -1.060719   -1.583262    8.490557 C.2       1 <1>        -0.087932 
     45 C          -0.265669    5.982083    9.118893 C.3       1 <1>        -0.053306 
     46 C           0.007443    7.273986    9.930262 C.3       1 <1>        -0.055911 
     47 C           0.082247    8.504063    8.987529 C.3       1 <1>        -0.065276 
     48 H           0.848873   -1.481141   -3.421466 H         1 <1>         0.067618 
     49 H           0.117030    0.031511   -5.376683 H         1 <1>         0.064777 
     50 H          -2.425500    0.298726   -5.585082 H         1 <1>         0.096824 
     51 H           1.029923   -1.504495   -7.193794 H         1 <1>         0.058746 
     52 H           1.026179   -2.829427   -6.003014 H         1 <1>         0.058746 
     53 H           3.484068   -2.832891   -5.089523 H         1 <1>         0.093741 
     54 H           4.701964   -0.453627   -6.601823 H         1 <1>         0.067095 
     55 H           6.890286   -1.539969   -6.223922 H         1 <1>         0.064758 
     56 H           5.789918   -2.120273   -8.313842 H         1 <1>         0.064673 
     57 H           4.135289   -3.812120   -8.618762 H         1 <1>         0.064668 
     58 H          -1.494910   -2.246999   -1.679373 H         1 <1>         0.213019 
     59 H          -0.297073   -3.508159   -3.183822 H         1 <1>         0.210128 
     60 H          -3.418919   -2.647961   -2.897482 H         1 <1>         0.213079 
     61 H          -3.383726    0.628262   -3.305192 H         1 <1>         0.213079 
     62 H           3.185432   -5.223896   -6.770332 H         1 <1>         0.058370 
     63 H           4.581497   -4.821051   -5.755495 H         1 <1>         0.058370 
     64 H          -5.150114   -1.203377   -4.972412 H         1 <1>         0.056059 
     65 H          -4.939773    0.149878   -6.131353 H         1 <1>         0.056059 
     66 H           4.221648   -0.072615   -4.294348 H         1 <1>         0.210110 
     67 H           6.884332   -3.718324   -5.292335 H         1 <1>         0.210005 
     68 H           6.746011   -4.338849   -8.500009 H         1 <1>         0.210004 
     69 H          -0.820432    2.560822   -1.285676 H         1 <1>         0.036607 
     70 H           0.907030    2.201861   -0.997352 H         1 <1>         0.036607 
     71 H          -5.464472   -1.461538   -8.008389 H         1 <1>         0.028467 
     72 H          -5.672502   -2.771120   -6.802098 H         1 <1>         0.028467 
     73 H           0.179425   -0.162524   -0.252114 H         1 <1>         0.027004 
     74 H          -1.514095    0.464498   -0.237331 H         1 <1>         0.027004 
     75 H          -0.882866    2.066576    1.564944 H         1 <1>         0.026540 
     76 H           0.807208    1.474205    1.515388 H         1 <1>         0.026540 
     77 H           4.768157   -6.180346   -8.277407 H         1 <1>         0.209508 
     78 H           0.004252   -0.870743    2.055901 H         1 <1>         0.026529 
     79 H          -1.675461   -0.269777    2.131791 H         1 <1>         0.026529 
     80 H          -7.900493   -1.853998   -7.480024 H         1 <1>         0.023048 
     81 H          -7.587989   -1.507222   -5.751719 H         1 <1>         0.023048 
     82 H          -7.391597   -0.215019   -6.976649 H         1 <1>         0.023048 
     83 H          -1.065224    1.201944    4.048581 H         1 <1>         0.026538 
     84 H           0.626943    0.630526    3.971092 H         1 <1>         0.026538 
     85 H          -0.108117   -1.719940    4.466526 H         1 <1>         0.026822 
     86 H          -1.817805   -1.198711    4.486001 H         1 <1>         0.026822 
     87 H          -1.329601    0.353934    6.335539 H         1 <1>         0.030732 
     88 H           0.389144   -0.211579    6.366141 H         1 <1>         0.030732 
     89 H           0.319695    1.992016   10.461883 H         1 <1>         0.026538 
     90 H          -1.450193    2.139628   10.677016 H         1 <1>         0.026538 
     91 H          -1.578265    3.607686    8.626678 H         1 <1>         0.026529 
     92 H           0.181745    3.432727    8.384890 H         1 <1>         0.026529 
     93 H          -0.044408    1.105946    8.167284 H         1 <1>         0.026822 
     94 H          -1.834213    1.135662    8.433444 H         1 <1>         0.026822 
     95 H          -1.282537   -2.567129    6.670391 H         1 <1>         0.056896 
     96 H           0.598916    4.597085   10.575061 H         1 <1>         0.026528 
     97 H          -1.163917    4.838777   10.762942 H         1 <1>         0.026528 
     98 H           0.219129   -0.619840    9.907752 H         1 <1>         0.030732 
     99 H          -1.519189   -0.511149   10.276949 H         1 <1>         0.030732 
    100 H          -1.212287    6.096199    8.565735 H         1 <1>         0.026520 
    101 H           0.546855    5.850746    8.385095 H         1 <1>         0.026520 
    102 H          -1.333507   -2.523404    8.978590 H         1 <1>         0.056896 
    103 H           0.961485    7.173646   10.474884 H         1 <1>         0.026265 
    104 H          -0.799608    7.425137   10.666577 H         1 <1>         0.026265 
    105 H           0.280919    9.418479    9.568802 H         1 <1>         0.022978 
    106 H          -0.869965    8.632642    8.447068 H         1 <1>         0.022978 
    107 H           0.892055    8.375492    8.250633 H         1 <1>         0.022978 
@<TRIPOS>BOND
     1   17    1 1    
     2   19    1 1    
     3   20    2 1    
     4    2   21 1    
     5    3   15 1    
     6   27    3 1    
     7   21    4 1    
     8    4   25 1    
     9   15    5 1    
    10    5   58 1    
    11   16    6 1    
    12    6   59 1    
    13   19    7 1    
    14    7   28 1    
    15   18    8 1    
    16    8   60 1    
    17   18    9 1    
    18    9   61 1    
    19   22   10 1    
    20   10   66 1    
    21   23   11 1    
    22   11   67 1    
    23   24   12 1    
    24   12   68 1    
    25   26   13 1    
    26   13   77 1    
    27   27   14 2    
    28   15   16 1    
    29   15   18 1    
    30   16   17 1    
    31   16   48 1    
    32   17   20 1    
    33   17   49 1    
    34   18   19 1    
    35   19   50 1    
    36   20   51 1    
    37   20   52 1    
    38   21   22 1    
    39   21   53 1    
    40   22   23 1    
    41   22   54 1    
    42   23   24 1    
    43   23   55 1    
    44   25   24 1    
    45   24   56 1    
    46   25   26 1    
    47   25   57 1    
    48   26   62 1    
    49   26   63 1    
    50   29   27 1    
    51   28   30 1    
    52   28   64 1    
    53   28   65 1    
    54   31   29 1    
    55   29   69 1    
    56   29   70 1    
    57   30   34 1    
    58   30   71 1    
    59   30   72 1    
    60   32   31 1    
    61   31   73 1    
    62   31   74 1    
    63   33   32 1    
    64   32   75 1    
    65   32   76 1    
    66   35   33 1    
    67   33   78 1    
    68   33   79 1    
    69   34   80 1    
    70   34   81 1    
    71   34   82 1    
    72   36   35 1    
    73   35   83 1    
    74   35   84 1    
    75   37   36 1    
    76   36   85 1    
    77   36   86 1    
    78   41   37 1    
    79   37   87 1    
    80   37   88 1    
    81   38   39 1    
    82   40   38 1    
    83   38   89 1    
    84   38   90 1    
    85   39   42 1    
    86   39   91 1    
    87   39   92 1    
    88   43   40 1    
    89   40   93 1    
    90   40   94 1    
    91   44   41 2    
    92   41   95 1    
    93   42   45 1    
    94   42   96 1    
    95   42   97 1    
    96   43   44 1    
    97   43   98 1    
    98   43   99 1    
    99   44  102 1    
   100   45   46 1    
   101   45  100 1    
   102   45  101 1    
   103   46   47 1    
   104   46  103 1    
   105   46  104 1    
   106   47  105 1    
   107   47  106 1    
   108   47  107 1    
@<TRIPOS>SUBSTRUCTURE
     1 ****       38 TEMP              0 ****  ****    0 ROOT 
@<TRIPOS>NORMAL
@<TRIPOS>FF_PBC
FORCE_FIELD_SETUP_FEATURE Force Field Setup information
v1.0  0 0.000000 0.000000 0.000000 0.000000 0.000000 0.000000 NONE 0 0 0 0 1 0 0 0 0 0 0 0 0
