@<TRIPOS>MOLECULE
MOL004043
   38    40     1     1     0
SMALL
GASTEIGER


@<TRIPOS>ATOM
      1 O          -3.557627   -0.538820   -1.031406 O.2       1 <1>        -0.292375 
      2 C          -0.118126   -0.080488   -0.640288 C.3       1 <1>         0.007307 
      3 C           0.993786    1.013728   -0.644557 C.3       1 <1>        -0.021792 
      4 C           1.508698    0.841982    0.823651 C.3       1 <1>        -0.031344 
      5 C           0.433207   -1.545780   -0.510721 C.3       1 <1>        -0.033600 
      6 C          -0.750167    0.311001    0.659571 C.2       1 <1>        -0.055722 
      7 C           0.214573    0.815899    1.696101 C.3       1 <1>        -0.027178 
      8 C           2.281822   -0.494854    1.007719 C.3       1 <1>        -0.049139 
      9 C          -1.297122    0.030802   -1.652968 C.3       1 <1>         0.020223 
     10 C           1.367907   -1.718325    0.726499 C.3       1 <1>        -0.049361 
     11 C           0.442245    2.471565   -0.824635 C.3       1 <1>        -0.058732 
     12 C           2.070217    0.820271   -1.758386 C.3       1 <1>        -0.058732 
     13 C          -2.077493    0.198999    0.675644 C.2       1 <1>        -0.008214 
     14 C          -2.448444   -0.154454   -0.699280 C.2       1 <1>         0.159796 
     15 C          -0.675207   -2.641609   -0.413483 C.3       1 <1>        -0.061591 
     16 C          -3.014273    0.429442    1.828186 C.3       1 <1>        -0.036430 
     17 H           2.178931    1.666417    1.121398 H         1 <1>         0.030925 
     18 H           0.996672   -1.775782   -1.428279 H         1 <1>         0.030681 
     19 H          -0.082275    1.831717    1.999434 H         1 <1>         0.031320 
     20 H           0.275269    0.191954    2.600056 H         1 <1>         0.031320 
     21 H           2.645678   -0.559203    2.047588 H         1 <1>         0.026829 
     22 H           3.179969   -0.518183    0.374055 H         1 <1>         0.026829 
     23 H          -1.246636   -0.706960   -2.465730 H         1 <1>         0.035378 
     24 H          -1.420284    1.023471   -2.102591 H         1 <1>         0.035378 
     25 H           1.992097   -2.619770    0.606320 H         1 <1>         0.026821 
     26 H           0.741154   -1.891326    1.615645 H         1 <1>         0.026821 
     27 H           0.188168    2.685092   -1.873208 H         1 <1>         0.023534 
     28 H           1.216478    3.198194   -0.534645 H         1 <1>         0.023534 
     29 H          -0.453574    2.685784   -0.225086 H         1 <1>         0.023534 
     30 H           2.852605    1.586704   -1.649215 H         1 <1>         0.023534 
     31 H           1.601206    0.940004   -2.746807 H         1 <1>         0.023534 
     32 H           2.567488   -0.155795   -1.766366 H         1 <1>         0.023534 
     33 H          -0.209351   -3.629862   -0.273474 H         1 <1>         0.023268 
     34 H          -1.337976   -2.457586    0.445341 H         1 <1>         0.023268 
     35 H          -1.295925   -2.708726   -1.317721 H         1 <1>         0.023268 
     36 H          -3.609072   -0.480031    1.998243 H         1 <1>         0.027858 
     37 H          -3.691355    1.261660    1.586086 H         1 <1>         0.027858 
     38 H          -2.462264    0.671771    2.748308 H         1 <1>         0.027858 
@<TRIPOS>BOND
     1   14    1 2    
     2    2    3 1    
     3    2    5 1    
     4    2    6 1    
     5    9    2 1    
     6    3    4 1    
     7    3   11 1    
     8    3   12 1    
     9    7    4 1    
    10    4    8 1    
    11    4   17 1    
    12    5   10 1    
    13    5   15 1    
    14    5   18 1    
    15    6    7 1    
    16    6   13 2    
    17    7   19 1    
    18    7   20 1    
    19   10    8 1    
    20    8   21 1    
    21    8   22 1    
    22    9   14 1    
    23    9   23 1    
    24    9   24 1    
    25   10   25 1    
    26   10   26 1    
    27   11   27 1    
    28   11   28 1    
    29   11   29 1    
    30   12   30 1    
    31   12   31 1    
    32   12   32 1    
    33   13   14 1    
    34   13   16 1    
    35   15   33 1    
    36   15   34 1    
    37   15   35 1    
    38   16   36 1    
    39   16   37 1    
    40   16   38 1    
@<TRIPOS>SUBSTRUCTURE
     1 ****        2 TEMP              0 ****  ****    0 ROOT 
@<TRIPOS>NORMAL
@<TRIPOS>FF_PBC
FORCE_FIELD_SETUP_FEATURE Force Field Setup information
v1.0  0 0.000000 0.000000 0.000000 0.000000 0.000000 0.000000 NONE 0 0 0 0 1 0 0 0 0 0 0 0 0
