@<TRIPOS>MOLECULE
MOL004636
  123   129     1     1     0
SMALL
GASTEIGER


@<TRIPOS>ATOM
      1 C          -2.409290   -0.130904    1.072589 C.3       1 <1>        -0.025376 
      2 C          -2.195589   -1.257395    2.119116 C.3       1 <1>         0.069511 
      3 C          -1.340541   -2.425312    1.499051 C.3       1 <1>         0.020641 
      4 C          -1.916095   -2.839567    0.064059 C.3       1 <1>        -0.025206 
      5 C          -2.590074   -1.785760   -0.894938 C.3       1 <1>        -0.021728 
      6 C          -3.293335   -0.658356   -0.075748 C.3       1 <1>        -0.044437 
      7 C          -1.109197   -3.904944   -0.771925 C.3       1 <1>        -0.048508 
      8 C          -0.729733   -3.553313   -2.257048 C.3       1 <1>        -0.045983 
      9 C          -0.375102   -2.054978   -2.508941 C.3       1 <1>        -0.015850 
     10 C          -1.590394   -1.204795   -1.996324 C.3       1 <1>        -0.010741 
     11 C          -0.080586   -1.689088   -4.037779 C.3       1 <1>         0.001211 
     12 C           0.483716   -0.278785   -3.971251 C.2       1 <1>        -0.041177 
     13 C          -0.339707    0.643227   -3.123306 C.2       1 <1>        -0.061680 
     14 C          -1.247304    0.255734   -2.207659 C.2       1 <1>        -0.079573 
     15 C           0.902928   -2.739309   -4.653960 C.3       1 <1>        -0.016023 
     16 C           1.697483   -2.222584   -5.877874 C.3       1 <1>         0.067441 
     17 C           2.411914   -0.858732   -5.548400 C.3       1 <1>         0.041279 
     18 C           1.630095    0.069737   -4.600472 C.2       1 <1>        -0.054572 
     19 C           2.615955   -0.077962   -6.888226 C.3       1 <1>        -0.038670 
     20 C           3.210964    1.346453   -6.735192 C.3       1 <1>        -0.046636 
     21 C           2.389120    2.220906   -5.744124 C.3       1 <1>        -0.031141 
     22 C           2.266652    1.446784   -4.404855 C.3       1 <1>        -0.025318 
     23 C          -1.315729   -1.584433   -5.005644 C.3       1 <1>        -0.054936 
     24 O          -1.564327   -0.625311    3.263630 O.3       1 <1>        -0.344807 
     25 O           0.860067   -2.259828   -7.053819 O.3       1 <1>        -0.390817 
     26 C          -1.399719   -3.682031    2.447310 C.3       1 <1>         0.052209 
     27 O          -0.633600   -3.521271    3.659484 O.3       1 <1>        -0.394374 
     28 C          -2.040475   -1.058322    4.560256 C.3       1 <1>         0.188127 
     29 O          -3.252627   -0.391560    4.967912 O.3       1 <1>        -0.343072 
     30 C          -3.088316    0.994572    5.340844 C.3       1 <1>         0.087317 
     31 C          -1.958609    1.189262    6.392488 C.3       1 <1>         0.109842 
     32 C          -0.619358    0.582008    5.881543 C.3       1 <1>         0.120486 
     33 C          -0.914341   -0.922720    5.623307 C.3       1 <1>         0.134483 
     34 C           1.140625    1.017446    4.226984 C.3       1 <1>         0.188437 
     35 O           2.177128    1.494073    5.105237 O.3       1 <1>        -0.340520 
     36 C           2.316985    2.930169    5.134943 C.3       1 <1>         0.113005 
     37 C           2.532259    3.512153    3.710101 C.3       1 <1>         0.111896 
     38 C           1.401426    3.079411    2.742801 C.3       1 <1>         0.114061 
     39 C           1.292448    1.531684    2.770631 C.3       1 <1>         0.134124 
     40 O           0.165605    3.737169    3.082231 O.3       1 <1>        -0.386401 
     41 C           1.211481    3.651498    5.948460 C.3       1 <1>         0.073015 
     42 O          -1.858325    2.584572    6.743464 O.3       1 <1>        -0.386569 
     43 C          -3.004587    1.957402    4.126882 C.3       1 <1>        -0.036060 
     44 O           1.578959    5.034916    6.116718 O.3       1 <1>        -0.392366 
     45 O           3.812464    3.091801    3.197146 O.3       1 <1>        -0.386488 
     46 O           2.462728    0.924959    2.175255 O.3       1 <1>        -0.384104 
     47 O          -1.278721   -1.530301    6.884089 O.3       1 <1>        -0.384094 
     48 O          -0.182525    1.318620    4.713865 O.3       1 <1>        -0.340053 
     49 C          -3.834510   -2.496586   -1.589331 C.3       1 <1>        -0.058735 
     50 C           0.928471   -1.701039   -1.695819 C.3       1 <1>        -0.058207 
     51 C           0.961409    2.545277   -6.281842 C.3       1 <1>        -0.059522 
     52 C           3.808828   -1.223916   -4.932803 C.3       1 <1>         0.055890 
     53 O           4.565613   -2.059147   -5.833606 O.3       1 <1>        -0.394059 
     54 C           0.154057   -1.976663    1.539520 C.3       1 <1>        -0.054821 
     55 C           3.146853    3.565596   -5.520935 C.3       1 <1>        -0.059522 
     56 H          -2.956060    0.699265    1.541837 H         1 <1>         0.029048 
     57 H          -1.464550    0.275520    0.691027 H         1 <1>         0.029048 
     58 H          -3.201538   -1.619338    2.393486 H         1 <1>         0.060308 
     59 H          -2.793758   -3.388903    0.438655 H         1 <1>         0.031301 
     60 H          -4.217164   -1.021733    0.404520 H         1 <1>         0.027158 
     61 H          -3.624227    0.155841   -0.737698 H         1 <1>         0.027158 
     62 H          -0.190641   -4.173320   -0.236046 H         1 <1>         0.026847 
     63 H          -1.680138   -4.849313   -0.829813 H         1 <1>         0.026847 
     64 H           0.122742   -4.198190   -2.521483 H         1 <1>         0.027105 
     65 H          -1.525472   -3.836726   -2.956036 H         1 <1>         0.027105 
     66 H          -2.309102   -1.207750   -2.806598 H         1 <1>         0.035395 
     67 H          -0.268890    1.724421   -3.211941 H         1 <1>         0.061744 
     68 H          -1.751066    1.038258   -1.640956 H         1 <1>         0.057525 
     69 H           0.331029   -3.628573   -4.965823 H         1 <1>         0.029895 
     70 H           1.649048   -3.100735   -3.935461 H         1 <1>         0.029895 
     71 H           2.439448   -3.012774   -6.099028 H         1 <1>         0.060283 
     72 H           3.264319   -0.659703   -7.563952 H         1 <1>         0.027536 
     73 H           1.647268    0.055395   -7.390943 H         1 <1>         0.027536 
     74 H           3.234915    1.838471   -7.721948 H         1 <1>         0.027081 
     75 H           4.254725    1.268960   -6.395701 H         1 <1>         0.027081 
     76 H           1.772641    2.110416   -3.692057 H         1 <1>         0.031555 
     77 H           3.260991    1.327771   -3.960736 H         1 <1>         0.031555 
     78 H          -1.930949   -0.683199   -4.865304 H         1 <1>         0.023839 
     79 H          -1.017421   -1.501189   -6.052615 H         1 <1>         0.023839 
     80 H          -1.957477   -2.473102   -4.918951 H         1 <1>         0.023839 
     81 H           1.314152   -2.193611   -7.888747 H         1 <1>         0.209815 
     82 H          -0.982882   -4.559237    1.927362 H         1 <1>         0.056334 
     83 H          -2.443887   -3.922845    2.710288 H         1 <1>         0.056334 
     84 H          -0.636130   -4.291883    4.221132 H         1 <1>         0.209420 
     85 H          -2.318544   -2.120708    4.547017 H         1 <1>         0.093748 
     86 H          -4.033105    1.261312    5.845693 H         1 <1>         0.062075 
     87 H          -2.275341    0.644105    7.300644 H         1 <1>         0.064594 
     88 H           0.135990    0.675707    6.679098 H         1 <1>         0.065136 
     89 H          -0.021561   -1.455421    5.263522 H         1 <1>         0.067105 
     90 H           1.305851   -0.062718    4.144115 H         1 <1>         0.093753 
     91 H           3.250541    3.114714    5.692042 H         1 <1>         0.064668 
     92 H           2.556302    4.613196    3.757128 H         1 <1>         0.064673 
     93 H           1.687618    3.406326    1.727756 H         1 <1>         0.064758 
     94 H           0.396215    1.212371    2.211729 H         1 <1>         0.067095 
     95 H          -0.555667    3.520798    2.499827 H         1 <1>         0.210005 
     96 H           1.147717    3.161435    6.933813 H         1 <1>         0.058370 
     97 H           0.230831    3.581442    5.458938 H         1 <1>         0.058370 
     98 H          -1.257538    2.746418    7.463178 H         1 <1>         0.210002 
     99 H          -2.956533    3.003207    4.467048 H         1 <1>         0.025536 
    100 H          -3.908563    1.838527    3.510196 H         1 <1>         0.025536 
    101 H          -2.132266    1.767439    3.495213 H         1 <1>         0.025536 
    102 H           0.942159    5.532248    6.622092 H         1 <1>         0.209508 
    103 H           3.881789    2.141399    3.150041 H         1 <1>         0.210004 
    104 H           2.562148    1.121481    1.247726 H         1 <1>         0.210110 
    105 H          -1.469173   -2.461752    6.824970 H         1 <1>         0.210111 
    106 H          -4.411771   -1.786633   -2.204453 H         1 <1>         0.023534 
    107 H          -4.560240   -2.914588   -0.873443 H         1 <1>         0.023534 
    108 H          -3.553284   -3.330140   -2.239421 H         1 <1>         0.023534 
    109 H           1.845175   -1.650439   -2.292269 H         1 <1>         0.023552 
    110 H           1.159295   -2.441201   -0.930954 H         1 <1>         0.023552 
    111 H           0.868096   -0.712217   -1.226022 H         1 <1>         0.023552 
    112 H           1.023424    3.007101   -7.278856 H         1 <1>         0.023508 
    113 H           0.324205    1.652373   -6.351340 H         1 <1>         0.023508 
    114 H           0.452678    3.251957   -5.608462 H         1 <1>         0.023508 
    115 H           3.660757   -1.749099   -3.976768 H         1 <1>         0.056653 
    116 H           4.446991   -0.354291   -4.732622 H         1 <1>         0.056653 
    117 H           5.411549   -2.334732   -5.490584 H         1 <1>         0.209434 
    118 H           0.452588   -1.670800    2.549554 H         1 <1>         0.023667 
    119 H           0.841800   -2.791273    1.282068 H         1 <1>         0.023667 
    120 H           0.340810   -1.111743    0.904673 H         1 <1>         0.023667 
    121 H           3.245913    4.110515   -6.472311 H         1 <1>         0.023508 
    122 H           2.607185    4.210169   -4.810268 H         1 <1>         0.023508 
    123 H           4.156315    3.389003   -5.118879 H         1 <1>         0.023508 
@<TRIPOS>BOND
     1    2    1 1    
     2    1    6 1    
     3    1   56 1    
     4    1   57 1    
     5    2    3 1    
     6   24    2 1    
     7    2   58 1    
     8    3    4 1    
     9    3   26 1    
    10    3   54 1    
    11    4    5 1    
    12    4    7 1    
    13    4   59 1    
    14    6    5 1    
    15    5   10 1    
    16    5   49 1    
    17    6   60 1    
    18    6   61 1    
    19    7    8 1    
    20    7   62 1    
    21    7   63 1    
    22    8    9 1    
    23    8   64 1    
    24    8   65 1    
    25   10    9 1    
    26    9   11 1    
    27    9   50 1    
    28   10   14 1    
    29   10   66 1    
    30   11   12 1    
    31   11   15 1    
    32   11   23 1    
    33   13   12 1    
    34   12   18 2    
    35   14   13 2    
    36   13   67 1    
    37   14   68 1    
    38   15   16 1    
    39   15   69 1    
    40   15   70 1    
    41   16   17 1    
    42   16   25 1    
    43   16   71 1    
    44   18   17 1    
    45   17   19 1    
    46   17   52 1    
    47   18   22 1    
    48   19   20 1    
    49   19   72 1    
    50   19   73 1    
    51   21   20 1    
    52   20   74 1    
    53   20   75 1    
    54   22   21 1    
    55   21   51 1    
    56   21   55 1    
    57   22   76 1    
    58   22   77 1    
    59   23   78 1    
    60   23   79 1    
    61   23   80 1    
    62   28   24 1    
    63   25   81 1    
    64   26   27 1    
    65   26   82 1    
    66   26   83 1    
    67   27   84 1    
    68   28   29 1    
    69   33   28 1    
    70   28   85 1    
    71   30   29 1    
    72   31   30 1    
    73   30   43 1    
    74   30   86 1    
    75   32   31 1    
    76   31   42 1    
    77   31   87 1    
    78   32   33 1    
    79   48   32 1    
    80   32   88 1    
    81   33   47 1    
    82   33   89 1    
    83   34   35 1    
    84   34   39 1    
    85   34   48 1    
    86   34   90 1    
    87   35   36 1    
    88   36   37 1    
    89   36   41 1    
    90   36   91 1    
    91   37   38 1    
    92   37   45 1    
    93   37   92 1    
    94   38   39 1    
    95   38   40 1    
    96   38   93 1    
    97   39   46 1    
    98   39   94 1    
    99   40   95 1    
   100   41   44 1    
   101   41   96 1    
   102   41   97 1    
   103   42   98 1    
   104   43   99 1    
   105   43  100 1    
   106   43  101 1    
   107   44  102 1    
   108   45  103 1    
   109   46  104 1    
   110   47  105 1    
   111   49  106 1    
   112   49  107 1    
   113   49  108 1    
   114   50  109 1    
   115   50  110 1    
   116   50  111 1    
   117   51  112 1    
   118   51  113 1    
   119   51  114 1    
   120   52   53 1    
   121   52  115 1    
   122   52  116 1    
   123   53  117 1    
   124   54  118 1    
   125   54  119 1    
   126   54  120 1    
   127   55  121 1    
   128   55  122 1    
   129   55  123 1    
@<TRIPOS>SUBSTRUCTURE
     1 ****       34 TEMP              0 ****  ****    0 ROOT 
@<TRIPOS>NORMAL
@<TRIPOS>FF_PBC
FORCE_FIELD_SETUP_FEATURE Force Field Setup information
v1.0  0 0.000000 0.000000 0.000000 0.000000 0.000000 0.000000 NONE 0 0 0 0 1 0 0 0 0 0 0 0 0
