@<TRIPOS>MOLECULE
MOL000198
   29    28     1     1     0
SMALL
GASTEIGER


@<TRIPOS>ATOM
      1 C          -0.863166   -2.123352   -0.114280 C.3       1 <1>         0.081390 
      2 C           0.324563   -1.186432    0.252260 C.3       1 <1>        -0.017217 
      3 C          -2.178782   -1.404279    0.102327 C.2       1 <1>        -0.060223 
      4 C          -0.772635   -2.654330   -1.572447 C.3       1 <1>        -0.032444 
      5 O          -0.763094   -3.248804    0.778552 O.3       1 <1>        -0.384818 
      6 C           0.408610    0.130239   -0.570280 C.3       1 <1>        -0.031638 
      7 C          -2.790264   -1.351658    1.291460 C.2       1 <1>        -0.099966 
      8 C           1.560559    0.981509   -0.079397 C.2       1 <1>        -0.085185 
      9 C           1.518368    2.303694    0.156988 C.2       1 <1>        -0.079616 
     10 C           2.728785    3.052349    0.675477 C.3       1 <1>        -0.044050 
     11 C           0.279237    3.140463   -0.073283 C.3       1 <1>        -0.044050 
     12 H           0.227175   -0.921096    1.317951 H         1 <1>         0.029887 
     13 H           1.262160   -1.752896    0.131999 H         1 <1>         0.029887 
     14 H          -2.645547   -0.900294   -0.745805 H         1 <1>         0.059440 
     15 H          -1.594387   -3.361315   -1.765120 H         1 <1>         0.026037 
     16 H           0.181391   -3.181557   -1.724248 H         1 <1>         0.026037 
     17 H          -0.849529   -1.841043   -2.308018 H         1 <1>         0.026037 
     18 H          -1.464469   -3.881686    0.665298 H         1 <1>         0.210579 
     19 H           0.601790   -0.087561   -1.631014 H         1 <1>         0.030839 
     20 H          -0.553873    0.653221   -0.492982 H         1 <1>         0.030839 
     21 H          -3.737474   -0.824712    1.408504 H         1 <1>         0.053262 
     22 H          -2.361499   -1.827127    2.173250 H         1 <1>         0.053262 
     23 H           2.499756    0.452289    0.087476 H         1 <1>         0.057146 
     24 H           3.588933    2.396076    0.879255 H         1 <1>         0.027427 
     25 H           2.464399    3.566202    1.612590 H         1 <1>         0.027427 
     26 H           3.041306    3.804438   -0.065435 H         1 <1>         0.027427 
     27 H           0.505792    4.216718   -0.031759 H         1 <1>         0.027427 
     28 H          -0.466361    2.917122    0.704300 H         1 <1>         0.027427 
     29 H          -0.151744    2.933921   -1.064120 H         1 <1>         0.027427 
@<TRIPOS>BOND
     1    1    2 1    
     2    1    3 1    
     3    1    4 1    
     4    1    5 1    
     5    2    6 1    
     6    2   12 1    
     7    2   13 1    
     8    3    7 2    
     9    3   14 1    
    10    4   15 1    
    11    4   16 1    
    12    4   17 1    
    13    5   18 1    
    14    6    8 1    
    15    6   19 1    
    16    6   20 1    
    17    7   21 1    
    18    7   22 1    
    19    8    9 2    
    20    8   23 1    
    21    9   10 1    
    22    9   11 1    
    23   10   24 1    
    24   10   25 1    
    25   10   26 1    
    26   11   27 1    
    27   11   28 1    
    28   11   29 1    
@<TRIPOS>SUBSTRUCTURE
     1 ****        1 TEMP              0 ****  ****    0 ROOT 
@<TRIPOS>NORMAL
@<TRIPOS>FF_PBC
FORCE_FIELD_SETUP_FEATURE Force Field Setup information
v1.0  0 0.000000 0.000000 0.000000 0.000000 0.000000 0.000000 NONE 0 0 0 0 1 0 0 0 0 0 0 0 0
