@<TRIPOS>MOLECULE
MOL007792
   86    89     1     1     0
SMALL
GASTEIGER


@<TRIPOS>ATOM
      1 O           4.946909    0.041258    0.150085 O.3       1 <1>        -0.340053 
      2 O           0.843455    0.346325   -0.505311 O.3       1 <1>        -0.340506 
      3 O           6.343290   -1.347807   -1.122753 O.3       1 <1>        -0.343069 
      4 O           3.174793   -2.138230    0.938728 O.3       1 <1>        -0.386478 
      5 O           1.028556    2.221498   -1.786925 O.3       1 <1>        -0.348365 
      6 O           3.893802    1.680749   -2.158678 O.3       1 <1>        -0.384094 
      7 O           8.509801    0.629182   -0.787703 O.3       1 <1>        -0.384104 
      8 O           8.828879    0.100830    1.985409 O.3       1 <1>        -0.386402 
      9 O           8.081618   -2.696629    1.897839 O.3       1 <1>        -0.386579 
     10 O          -0.993589   -1.503331    0.257868 O.3       1 <1>        -0.309194 
     11 O          -1.865276   -2.264673    2.169754 O.2       1 <1>        -0.259878 
     12 O          -4.103280    3.193312    1.724632 O.3       1 <1>        -0.345341 
     13 O          -2.219998    4.469752    3.341475 O.3       1 <1>        -0.357269 
     14 O          -7.912179   -0.176285   -2.123545 O.3       1 <1>        -0.357256 
     15 O          -9.919890   -1.748650   -0.988066 O.3       1 <1>        -0.345349 
     16 C           3.700005   -0.213329   -0.542893 C.3       1 <1>         0.120575 
     17 C           2.725040   -0.846066    0.488187 C.3       1 <1>         0.112287 
     18 C           3.103287    1.118069   -1.090589 C.3       1 <1>         0.134475 
     19 C           1.299509   -0.957656   -0.108292 C.3       1 <1>         0.113871 
     20 C           6.113214    0.009007   -0.698791 C.3       1 <1>         0.188324 
     21 C           7.343844    0.570186    0.062694 C.3       1 <1>         0.134121 
     22 C           1.631988    0.935403   -1.550061 C.3       1 <1>         0.187921 
     23 C           7.643280   -0.333119    1.287534 C.3       1 <1>         0.113972 
     24 C           7.834994   -1.793295    0.800258 C.3       1 <1>         0.109478 
     25 C           6.594535   -2.243982   -0.019803 C.3       1 <1>         0.087307 
     26 C           0.284725   -1.503908    0.923989 C.3       1 <1>         0.086154 
     27 C           6.793017   -3.666711   -0.599258 C.3       1 <1>        -0.036060 
     28 C          -0.271740    2.132259   -2.407226 C.3       1 <1>         0.054726 
     29 C          -0.977988    3.503859   -2.279531 C.3       1 <1>        -0.003966 
     30 C          -2.025811   -1.867073    1.025643 C.2       1 <1>         0.286679 
     31 C          -1.316208    3.755873   -0.801965 C.ar      1 <1>        -0.042597 
     32 C          -2.556063    3.350229   -0.264735 C.ar      1 <1>        -0.025903 
     33 C          -0.326121    4.426790    0.072623 C.ar      1 <1>        -0.055908 
     34 C          -3.383590   -1.773989    0.464008 C.2       1 <1>         0.010493 
     35 C          -2.878414    3.590500    1.168273 C.ar      1 <1>         0.105660 
     36 C          -0.620431    4.660993    1.422170 C.ar      1 <1>        -0.029140 
     37 C          -1.924351    4.237247    1.993084 C.ar      1 <1>         0.102451 
     38 C          -4.499101   -2.063212    1.144588 C.2       1 <1>        -0.048856 
     39 C          -5.889707   -1.945273    0.556694 C.ar      1 <1>        -0.022259 
     40 C          -6.212194   -1.088295   -0.521488 C.ar      1 <1>        -0.022241 
     41 C          -6.962167   -2.774708    1.156064 C.ar      1 <1>        -0.051991 
     42 C          -5.050814    2.389522    1.000819 C.3       1 <1>         0.043136 
     43 C          -7.598637   -1.023131   -1.053969 C.ar      1 <1>         0.102997 
     44 C          -8.273428   -2.718699    0.661639 C.ar      1 <1>        -0.028600 
     45 C          -8.614130   -1.822109   -0.474546 C.ar      1 <1>         0.105438 
     46 C         -10.967092   -2.588873   -0.474269 C.3       1 <1>         0.043135 
     47 H           3.816024   -0.937449   -1.366655 H         1 <1>         0.065137 
     48 H           2.685343   -0.184845    1.368744 H         1 <1>         0.064683 
     49 H           3.098325    1.847968   -0.265566 H         1 <1>         0.067105 
     50 H           1.293402   -1.644570   -0.971914 H         1 <1>         0.064694 
     51 H           5.984707    0.631858   -1.595570 H         1 <1>         0.093751 
     52 H           7.103266    1.584586    0.425984 H         1 <1>         0.067095 
     53 H           1.611861    0.319631   -2.464396 H         1 <1>         0.093740 
     54 H           6.785579   -0.305888    1.981058 H         1 <1>         0.064757 
     55 H           8.722454   -1.821749    0.147927 H         1 <1>         0.064584 
     56 H           5.724308   -2.274294    0.654995 H         1 <1>         0.062075 
     57 H           0.267734   -0.831305    1.797721 H         1 <1>         0.059271 
     58 H           0.568063   -2.519665    1.247138 H         1 <1>         0.059271 
     59 H           7.645145   -3.676587   -1.295117 H         1 <1>         0.025536 
     60 H           6.980264   -4.395585    0.204315 H         1 <1>         0.025536 
     61 H           5.888541   -3.972011   -1.147800 H         1 <1>         0.025536 
     62 H           3.248548   -2.780407    0.239594 H         1 <1>         0.210004 
     63 H           3.913399    1.140333   -2.942427 H         1 <1>         0.210111 
     64 H           8.401630    1.189393   -1.550526 H         1 <1>         0.210110 
     65 H           8.774324    0.994711    2.305626 H         1 <1>         0.210005 
     66 H           7.374854   -2.718078    2.534338 H         1 <1>         0.210002 
     67 H          -0.139783    1.871959   -3.471753 H         1 <1>         0.056391 
     68 H          -0.918699    1.372384   -1.934359 H         1 <1>         0.056391 
     69 H          -1.898642    3.515169   -2.885519 H         1 <1>         0.033543 
     70 H          -0.312100    4.294952   -2.660940 H         1 <1>         0.033543 
     71 H          -3.267608    2.858276   -0.913942 H         1 <1>         0.064685 
     72 H           0.631226    4.735262   -0.333994 H         1 <1>         0.062111 
     73 H          -3.415528   -1.446685   -0.572929 H         1 <1>         0.067735 
     74 H           0.114277    5.155453    2.049730 H         1 <1>         0.064412 
     75 H          -4.414477   -2.411140    2.174686 H         1 <1>         0.062526 
     76 H          -1.543426    4.949070    3.807126 H         1 <1>         0.217422 
     77 H          -5.452189   -0.461204   -0.969549 H         1 <1>         0.064994 
     78 H          -6.733413   -3.435455    1.985990 H         1 <1>         0.062425 
     79 H          -5.446849    2.926350    0.125206 H         1 <1>         0.052871 
     80 H          -4.596422    1.436340    0.690756 H         1 <1>         0.052871 
     81 H          -5.891089    2.169458    1.675104 H         1 <1>         0.052871 
     82 H          -9.021786   -3.345018    1.131738 H         1 <1>         0.064429 
     83 H          -7.174255    0.307900   -2.476280 H         1 <1>         0.217422 
     84 H         -11.889763   -2.373232   -1.032662 H         1 <1>         0.052871 
     85 H         -11.154883   -2.380386    0.590333 H         1 <1>         0.052871 
     86 H         -10.718704   -3.652108   -0.615868 H         1 <1>         0.052871 
@<TRIPOS>BOND
     1   16    1 1    
     2    1   20 1    
     3   19    2 1    
     4    2   22 1    
     5   20    3 1    
     6    3   25 1    
     7   17    4 1    
     8    4   62 1    
     9   22    5 1    
    10    5   28 1    
    11   18    6 1    
    12    6   63 1    
    13   21    7 1    
    14    7   64 1    
    15   23    8 1    
    16    8   65 1    
    17   24    9 1    
    18    9   66 1    
    19   10   26 1    
    20   30   10 1    
    21   30   11 2    
    22   35   12 1    
    23   12   42 1    
    24   37   13 1    
    25   13   76 1    
    26   43   14 1    
    27   14   83 1    
    28   45   15 1    
    29   15   46 1    
    30   17   16 1    
    31   16   18 1    
    32   16   47 1    
    33   19   17 1    
    34   17   48 1    
    35   22   18 1    
    36   18   49 1    
    37   26   19 1    
    38   19   50 1    
    39   20   21 1    
    40   20   51 1    
    41   21   23 1    
    42   21   52 1    
    43   22   53 1    
    44   23   24 1    
    45   23   54 1    
    46   25   24 1    
    47   24   55 1    
    48   25   27 1    
    49   25   56 1    
    50   26   57 1    
    51   26   58 1    
    52   27   59 1    
    53   27   60 1    
    54   27   61 1    
    55   28   29 1    
    56   28   67 1    
    57   28   68 1    
    58   29   31 1    
    59   29   69 1    
    60   29   70 1    
    61   34   30 1    
    62   31   32 2    
    63   31   33 1    
    64   32   35 1    
    65   32   71 1    
    66   33   36 2    
    67   33   72 1    
    68   38   34 2    
    69   34   73 1    
    70   35   37 2    
    71   36   37 1    
    72   36   74 1    
    73   39   38 1    
    74   38   75 1    
    75   40   39 2    
    76   39   41 1    
    77   43   40 1    
    78   40   77 1    
    79   41   44 2    
    80   41   78 1    
    81   42   79 1    
    82   42   80 1    
    83   42   81 1    
    84   43   45 2    
    85   44   45 1    
    86   44   82 1    
    87   46   84 1    
    88   46   85 1    
    89   46   86 1    
@<TRIPOS>SUBSTRUCTURE
     1 ****        1 TEMP              0 ****  ****    0 ROOT 
@<TRIPOS>NORMAL
@<TRIPOS>FF_PBC
FORCE_FIELD_SETUP_FEATURE Force Field Setup information
v1.0  0 0.000000 0.000000 0.000000 0.000000 0.000000 0.000000 NONE 0 0 0 0 1 0 0 0 0 0 0 0 0
