@<TRIPOS>MOLECULE
MOL005239
   35    38     1     1     0
SMALL
GASTEIGER


@<TRIPOS>ATOM
      1 C          -3.130683    3.024518   -0.145398 C.ar      1 <1>         0.028972 
      2 C          -3.496773    1.598932    0.012596 C.ar      1 <1>        -0.035729 
      3 C          -2.502490    0.689955    0.063522 C.ar      1 <1>        -0.011120 
      4 C          -1.102804    1.155076   -0.069219 C.ar      1 <1>         0.021643 
      5 C          -0.896398    2.522723   -0.173862 C.ar      1 <1>         0.119286 
      6 N          -1.899939    3.376172   -0.212112 N.ar      1 <1>        -0.251060 
      7 C          -2.779799   -0.747958    0.269149 C.ar      1 <1>        -0.021281 
      8 C          -1.781101   -1.628056    0.344213 C.ar      1 <1>         0.106848 
      9 C          -0.359180   -1.212717    0.200362 C.ar      1 <1>         0.114006 
     10 C           0.006515    0.161696   -0.063701 C.ar      1 <1>         0.025153 
     11 C           1.405211    0.634718   -0.315249 C.ar      1 <1>        -0.003816 
     12 C           1.667307    2.097606   -0.354247 C.ar      1 <1>         0.031620 
     13 C           0.510932    3.061794   -0.244302 C.2       1 <1>         0.212382 
     14 C           2.521530   -0.205486   -0.539429 C.ar      1 <1>        -0.053248 
     15 C           3.885241    0.351947   -0.708400 C.ar      1 <1>        -0.061145 
     16 C           4.091467    1.671504   -0.682868 C.ar      1 <1>        -0.061050 
     17 C           2.945091    2.590972   -0.511196 C.ar      1 <1>        -0.050279 
     18 O           0.707287    4.266942   -0.222377 O.2       1 <1>        -0.284980 
     19 O           0.621571   -2.192872    0.327836 O.3       1 <1>        -0.344711 
     20 C           0.885435   -2.581338    1.685045 C.3       1 <1>         0.043161 
     21 C          -1.902358   -3.820884   -0.584526 C.3       1 <1>         0.043136 
     22 O          -2.093573   -2.972762    0.559649 O.3       1 <1>        -0.345303 
     23 H          -3.905293    3.781948   -0.200371 H         1 <1>         0.082976 
     24 H          -4.538502    1.306640    0.094287 H         1 <1>         0.063873 
     25 H          -3.801790   -1.098626    0.367555 H         1 <1>         0.065021 
     26 H           2.439242   -1.278926   -0.597696 H         1 <1>         0.062382 
     27 H           4.723723   -0.324068   -0.848778 H         1 <1>         0.061777 
     28 H           5.093805    2.074486   -0.793739 H         1 <1>         0.061778 
     29 H           3.125602    3.661134   -0.523280 H         1 <1>         0.062479 
     30 H          -0.010807   -3.006683    2.162656 H         1 <1>         0.052871 
     31 H           1.237283   -1.718113    2.271501 H         1 <1>         0.052871 
     32 H           1.674977   -3.346937    1.675177 H         1 <1>         0.052871 
     33 H          -2.195433   -4.843360   -0.304803 H         1 <1>         0.052871 
     34 H          -2.536503   -3.488293   -1.420986 H         1 <1>         0.052871 
     35 H          -0.851294   -3.835881   -0.910206 H         1 <1>         0.052871 
@<TRIPOS>BOND
     1    1    2 1    
     2    1    6 2    
     3    1   23 1    
     4    2    3 2    
     5    2   24 1    
     6    3    4 1    
     7    3    7 1    
     8    4    5 2    
     9    4   10 1    
    10    5    6 1    
    11    5   13 1    
    12    7    8 2    
    13    7   25 1    
    14    8    9 1    
    15    8   22 1    
    16    9   10 2    
    17    9   19 1    
    18   10   11 1    
    19   11   12 1    
    20   11   14 2    
    21   12   13 1    
    22   12   17 2    
    23   13   18 2    
    24   14   15 1    
    25   14   26 1    
    26   15   16 2    
    27   15   27 1    
    28   16   17 1    
    29   16   28 1    
    30   17   29 1    
    31   19   20 1    
    32   20   30 1    
    33   20   31 1    
    34   20   32 1    
    35   22   21 1    
    36   21   33 1    
    37   21   34 1    
    38   21   35 1    
@<TRIPOS>SUBSTRUCTURE
     1 ****        1 TEMP              0 ****  ****    0 ROOT 
@<TRIPOS>NORMAL
@<TRIPOS>FF_PBC
FORCE_FIELD_SETUP_FEATURE Force Field Setup information
v1.0  0 0.000000 0.000000 0.000000 0.000000 0.000000 0.000000 NONE 0 0 0 0 1 0 0 0 0 0 0 0 0
