@<TRIPOS>MOLECULE
MOL008054
   27    27     1     1     0
SMALL
GASTEIGER


@<TRIPOS>ATOM
      1 C           1.219570    3.796730   -1.520421 C.3       1 <1>        -0.038058 
      2 C          -0.039008    3.809019   -0.615871 C.3       1 <1>         0.063205 
      3 C          -0.905045    2.538004   -0.836319 C.3       1 <1>         0.034895 
      4 C          -0.166634    1.333403   -0.474621 C.1       1 <1>        -0.099358 
      5 C           0.445771    0.341746   -0.175531 C.1       1 <1>        -0.097468 
      6 C           1.190088   -0.858333    0.188822 C.3       1 <1>         0.034206 
      7 O           0.407159    3.902622    0.749404 O.3       1 <1>        -0.391130 
      8 C           0.308924   -2.079684    0.484877 C.ar      1 <1>        -0.035613 
      9 C           0.977828   -3.364396    0.808682 C.ar      1 <1>        -0.057668 
     10 C           0.221443   -4.513783    1.087736 C.ar      1 <1>        -0.061473 
     11 C          -1.258642   -4.452884    1.060693 C.ar      1 <1>        -0.061741 
     12 C          -1.902473   -3.245057    0.756342 C.ar      1 <1>        -0.061473 
     13 C          -1.106786   -2.029260    0.461733 C.ar      1 <1>        -0.057668 
     14 H           1.795734    4.722442   -1.367404 H         1 <1>         0.025471 
     15 H           0.936227    3.728656   -2.582090 H         1 <1>         0.025471 
     16 H           1.864789    2.941500   -1.268323 H         1 <1>         0.025471 
     17 H          -0.640225    4.701597   -0.869851 H         1 <1>         0.059968 
     18 H          -1.809519    2.581556   -0.210356 H         1 <1>         0.042258 
     19 H          -1.211899    2.456459   -1.890391 H         1 <1>         0.042258 
     20 H           1.789297   -0.628327    1.082321 H         1 <1>         0.044619 
     21 H           1.867679   -1.100451   -0.643389 H         1 <1>         0.044619 
     22 H          -0.307769    3.931520    1.377211 H         1 <1>         0.209803 
     23 H           2.061626   -3.415658    0.830266 H         1 <1>         0.062057 
     24 H           0.718532   -5.449261    1.323898 H         1 <1>         0.061767 
     25 H          -1.840950   -5.343092    1.276421 H         1 <1>         0.061758 
     26 H          -2.986702   -3.197483    0.735729 H         1 <1>         0.061767 
     27 H          -1.629018   -1.107786    0.230232 H         1 <1>         0.062057 
@<TRIPOS>BOND
     1    1    2 1    
     2    1   14 1    
     3    1   15 1    
     4    1   16 1    
     5    2    3 1    
     6    2    7 1    
     7    2   17 1    
     8    3    4 1    
     9    3   18 1    
    10    3   19 1    
    11    4    5 3    
    12    5    6 1    
    13    6    8 1    
    14    6   20 1    
    15    6   21 1    
    16    7   22 1    
    17    8    9 1    
    18    8   13 2    
    19    9   10 2    
    20    9   23 1    
    21   10   11 1    
    22   10   24 1    
    23   11   12 2    
    24   11   25 1    
    25   12   13 1    
    26   12   26 1    
    27   13   27 1    
@<TRIPOS>SUBSTRUCTURE
     1 ****        1 TEMP              0 ****  ****    0 ROOT 
@<TRIPOS>NORMAL
@<TRIPOS>FF_PBC
FORCE_FIELD_SETUP_FEATURE Force Field Setup information
v1.0  0 0.000000 0.000000 0.000000 0.000000 0.000000 0.000000 NONE 0 0 0 0 1 0 0 0 0 0 0 0 0
