@<TRIPOS>MOLECULE
MOL000119
   42    41     1     1     0
SMALL
GASTEIGER


@<TRIPOS>ATOM
      1 C           2.403724    3.657036    0.069660 C.3       1 <1>         0.081390 
      2 C           1.137072    2.753683   -0.043424 C.3       1 <1>        -0.017216 
      3 C           1.987340    5.022907    0.589798 C.2       1 <1>        -0.060223 
      4 C           3.464072    3.055699    1.033895 C.3       1 <1>        -0.032444 
      5 O           2.940944    3.759573   -1.261293 O.3       1 <1>        -0.384818 
      6 C           1.402043    1.344555   -0.645877 C.3       1 <1>        -0.031629 
      7 C           2.780647    6.102569    0.592451 C.2       1 <1>        -0.099966 
      8 C           0.113397    0.571896   -0.832991 C.2       1 <1>        -0.084914 
      9 C          -0.000735   -0.764917   -0.757840 C.2       1 <1>        -0.076240 
     10 C          -1.344528   -1.452385   -0.913787 C.3       1 <1>        -0.028563 
     11 C           1.185559   -1.672297   -0.508585 C.3       1 <1>        -0.043778 
     12 C          -1.820177   -2.008478    0.452853 C.3       1 <1>        -0.030848 
     13 C          -3.166310   -2.679943    0.295640 C.2       1 <1>        -0.084989 
     14 C          -3.369835   -4.005690    0.223748 C.2       1 <1>        -0.079608 
     15 C          -4.762887   -4.584346    0.097426 C.3       1 <1>        -0.044049 
     16 C          -2.241609   -5.013008    0.264081 C.3       1 <1>        -0.044049 
     17 H           0.421954    3.278505   -0.698550 H         1 <1>         0.029887 
     18 H           0.670110    2.632007    0.947769 H         1 <1>         0.029887 
     19 H           0.982633    5.147997    0.997673 H         1 <1>         0.059440 
     20 H           4.290239    3.765429    1.189526 H         1 <1>         0.026037 
     21 H           3.897606    2.134557    0.619796 H         1 <1>         0.026037 
     22 H           3.010225    2.832793    2.011445 H         1 <1>         0.026037 
     23 H           3.743517    4.264725   -1.316955 H         1 <1>         0.210579 
     24 H           2.072413    0.796475    0.030278 H         1 <1>         0.030839 
     25 H           1.888619    1.443685   -1.628744 H         1 <1>         0.030839 
     26 H           2.416087    7.053766    0.981998 H         1 <1>         0.053262 
     27 H           3.802757    6.083947    0.218549 H         1 <1>         0.053262 
     28 H          -0.779995    1.160695   -1.043238 H         1 <1>         0.057155 
     29 H          -1.261984   -2.272560   -1.644622 H         1 <1>         0.031285 
     30 H          -2.113640   -0.760876   -1.294240 H         1 <1>         0.031285 
     31 H           2.077003   -1.322506   -1.050119 H         1 <1>         0.027436 
     32 H           0.988454   -2.701204   -0.845368 H         1 <1>         0.027436 
     33 H           1.403922   -1.697142    0.569440 H         1 <1>         0.027436 
     34 H          -1.922627   -1.174037    1.165905 H         1 <1>         0.031044 
     35 H          -1.067262   -2.692632    0.870491 H         1 <1>         0.031044 
     36 H          -4.022627   -2.006499    0.236996 H         1 <1>         0.057155 
     37 H          -5.551922   -3.817565    0.121559 H         1 <1>         0.027427 
     38 H          -4.848140   -5.131897   -0.853343 H         1 <1>         0.027427 
     39 H          -4.942250   -5.284244    0.927512 H         1 <1>         0.027427 
     40 H          -1.888017   -5.122343    1.300239 H         1 <1>         0.027427 
     41 H          -1.403995   -4.697457   -0.375661 H         1 <1>         0.027427 
     42 H          -2.571898   -6.000271   -0.093190 H         1 <1>         0.027427 
@<TRIPOS>BOND
     1    1    2 1    
     2    1    3 1    
     3    1    4 1    
     4    1    5 1    
     5    2    6 1    
     6    2   17 1    
     7    2   18 1    
     8    3    7 2    
     9    3   19 1    
    10    4   20 1    
    11    4   21 1    
    12    4   22 1    
    13    5   23 1    
    14    6    8 1    
    15    6   24 1    
    16    6   25 1    
    17    7   26 1    
    18    7   27 1    
    19    8    9 2    
    20    8   28 1    
    21    9   10 1    
    22    9   11 1    
    23   10   12 1    
    24   10   29 1    
    25   10   30 1    
    26   11   31 1    
    27   11   32 1    
    28   11   33 1    
    29   12   13 1    
    30   12   34 1    
    31   12   35 1    
    32   13   14 2    
    33   13   36 1    
    34   14   15 1    
    35   14   16 1    
    36   15   37 1    
    37   15   38 1    
    38   15   39 1    
    39   16   40 1    
    40   16   41 1    
    41   16   42 1    
@<TRIPOS>SUBSTRUCTURE
     1 ****        1 TEMP              0 ****  ****    0 ROOT 
@<TRIPOS>NORMAL
@<TRIPOS>FF_PBC
FORCE_FIELD_SETUP_FEATURE Force Field Setup information
v1.0  0 0.000000 0.000000 0.000000 0.000000 0.000000 0.000000 NONE 0 0 0 0 1 0 0 0 0 0 0 0 0
