@<TRIPOS>MOLECULE
MOL000116
   28    27     1     1     0
SMALL
GASTEIGER


@<TRIPOS>ATOM
      1 C          -0.134928   -0.398973    0.000143 C.3       1 <1>        -0.053047 
      2 C          -1.513783    0.316393   -0.000104 C.3       1 <1>        -0.052682 
      3 C           1.035028    0.623028   -0.000097 C.3       1 <1>        -0.053065 
      4 C          -2.681887   -0.707601    0.000104 C.3       1 <1>        -0.046641 
      5 C           2.412568   -0.094843    0.000126 C.3       1 <1>        -0.053306 
      6 C          -4.060637    0.006190   -0.000231 C.3       1 <1>         0.002777 
      7 C           3.583760    0.925108   -0.000124 C.3       1 <1>        -0.055911 
      8 C          -5.206843   -0.972039    0.000034 C.2       1 <1>         0.120308 
      9 C           4.957506    0.205112    0.000112 C.3       1 <1>        -0.065276 
     10 O          -6.355144   -0.559276    0.000573 O.2       1 <1>        -0.301035 
     11 H          -0.057546   -1.040210    0.893663 H         1 <1>         0.026529 
     12 H          -0.057473   -1.040697   -0.893031 H         1 <1>         0.026529 
     13 H          -1.591061    0.957670   -0.893613 H         1 <1>         0.026539 
     14 H          -1.591148    0.958131    0.893044 H         1 <1>         0.026539 
     15 H           0.958843    1.264380   -0.893610 H         1 <1>         0.026528 
     16 H           0.958791    1.264854    0.893081 H         1 <1>         0.026528 
     17 H          -2.606744   -1.348446    0.894312 H         1 <1>         0.026918 
     18 H          -2.606598   -1.348965   -0.893747 H         1 <1>         0.026918 
     19 H           2.489656   -0.736070    0.893651 H         1 <1>         0.026520 
     20 H           2.489699   -0.736549   -0.893036 H         1 <1>         0.026520 
     21 H          -4.151005    0.643723   -0.894076 H         1 <1>         0.033871 
     22 H          -4.151087    0.644317    0.893171 H         1 <1>         0.033871 
     23 H           3.514056    1.567624   -0.893769 H         1 <1>         0.026265 
     24 H           3.514010    1.568120    0.893178 H         1 <1>         0.026265 
     25 H          -5.040456   -2.049260   -0.000268 H         1 <1>         0.102608 
     26 H           5.773606    0.945001   -0.000069 H         1 <1>         0.022978 
     27 H           5.059437   -0.428115    0.895295 H         1 <1>         0.022978 
     28 H           5.059482   -0.428606   -0.894712 H         1 <1>         0.022978 
@<TRIPOS>BOND
     1    1    2 1    
     2    1    3 1    
     3    1   11 1    
     4    1   12 1    
     5    2    4 1    
     6    2   13 1    
     7    2   14 1    
     8    3    5 1    
     9    3   15 1    
    10    3   16 1    
    11    4    6 1    
    12    4   17 1    
    13    4   18 1    
    14    5    7 1    
    15    5   19 1    
    16    5   20 1    
    17    6    8 1    
    18    6   21 1    
    19    6   22 1    
    20    7    9 1    
    21    7   23 1    
    22    7   24 1    
    23    8   10 2    
    24    8   25 1    
    25    9   26 1    
    26    9   27 1    
    27    9   28 1    
@<TRIPOS>SUBSTRUCTURE
     1 ****        1 TEMP              0 ****  ****    0 ROOT 
@<TRIPOS>NORMAL
@<TRIPOS>FF_PBC
FORCE_FIELD_SETUP_FEATURE Force Field Setup information
v1.0  0 0.000000 0.000000 0.000000 0.000000 0.000000 0.000000 NONE 0 0 0 0 1 0 0 0 0 0 0 0 0
