@<TRIPOS>MOLECULE
MOL001798
   36    38     1     1     0
SMALL
GASTEIGER


@<TRIPOS>ATOM
      1 C          -1.979429   -0.664669    0.520286 C.ar      1 <1>         0.092361 
      2 C          -1.941260   -1.871328   -0.069585 C.ar      1 <1>         0.077223 
      3 O          -0.821408   -0.012087    0.938411 O.3       1 <1>        -0.335584 
      4 C          -3.278268    0.014042    0.733256 C.ar      1 <1>        -0.001026 
      5 C          -0.616582   -2.563037   -0.284393 C.2       1 <1>         0.170906 
      6 C          -3.206565   -2.516872   -0.510780 C.ar      1 <1>         0.087967 
      7 C           0.502349   -0.562401    0.860520 C.3       1 <1>         0.097317 
      8 C          -4.423231   -0.554227    0.340025 C.ar      1 <1>         0.077503 
      9 C           0.672334   -1.935132    0.151225 C.3       1 <1>         0.041566 
     10 O          -0.560403   -3.655208   -0.826411 O.2       1 <1>        -0.291783 
     11 C          -4.385287   -1.887055   -0.312850 C.ar      1 <1>        -0.001314 
     12 O          -3.159118   -3.772070   -1.125829 O.3       1 <1>        -0.358967 
     13 C           1.299073    0.523024    0.123881 C.ar      1 <1>        -0.013113 
     14 O          -5.629858    0.116551    0.551380 O.3       1 <1>        -0.359667 
     15 C           2.527698    1.108371    0.715773 C.ar      1 <1>        -0.025869 
     16 C           0.848272    0.965071   -1.127430 C.ar      1 <1>        -0.026117 
     17 C           3.239567    2.105703    0.022768 C.ar      1 <1>         0.078589 
     18 C           1.595156    2.013509   -1.864288 C.ar      1 <1>         0.075365 
     19 C           2.749283    2.557141   -1.299706 C.ar      1 <1>        -0.001904 
     20 O           4.402861    2.694043    0.537076 O.3       1 <1>        -0.347820 
     21 O           1.164477    2.465702   -3.112983 O.3       1 <1>        -0.359740 
     22 C           4.930739    2.336501    1.824084 C.3       1 <1>         0.043027 
     23 H          -3.296431    0.985738    1.213503 H         1 <1>         0.066932 
     24 H           0.845161   -0.635070    1.906686 H         1 <1>         0.065573 
     25 H           1.180154   -2.647833    0.821206 H         1 <1>         0.037400 
     26 H           1.296967   -1.834264   -0.750273 H         1 <1>         0.037400 
     27 H          -5.313683   -2.349409   -0.628254 H         1 <1>         0.066923 
     28 H          -3.955960   -4.044823   -1.567025 H         1 <1>         0.217342 
     29 H          -6.394291   -0.356276    0.241688 H         1 <1>         0.217316 
     30 H           2.854801    0.750634    1.682767 H         1 <1>         0.064685 
     31 H          -0.051247    0.537870   -1.558121 H         1 <1>         0.064677 
     32 H           3.298381    3.322331   -1.834739 H         1 <1>         0.066909 
     33 H           0.366836    2.046900   -3.415596 H         1 <1>         0.217315 
     34 H           5.833191    2.941994    1.996084 H         1 <1>         0.052870 
     35 H           4.205560    2.558127    2.622339 H         1 <1>         0.052870 
     36 H           5.215122    1.273302    1.849517 H         1 <1>         0.052870 
@<TRIPOS>BOND
     1    1    2 2    
     2    1    3 1    
     3    1    4 1    
     4    2    5 1    
     5    2    6 1    
     6    3    7 1    
     7    4    8 2    
     8    4   23 1    
     9    5    9 1    
    10    5   10 2    
    11    6   11 2    
    12    6   12 1    
    13    7    9 1    
    14    7   13 1    
    15    7   24 1    
    16    8   11 1    
    17    8   14 1    
    18    9   25 1    
    19    9   26 1    
    20   11   27 1    
    21   12   28 1    
    22   13   15 1    
    23   13   16 2    
    24   14   29 1    
    25   15   17 2    
    26   15   30 1    
    27   16   18 1    
    28   16   31 1    
    29   17   19 1    
    30   17   20 1    
    31   18   19 2    
    32   18   21 1    
    33   19   32 1    
    34   20   22 1    
    35   21   33 1    
    36   22   34 1    
    37   22   35 1    
    38   22   36 1    
@<TRIPOS>SUBSTRUCTURE
     1 ****        1 TEMP              0 ****  ****    0 ROOT 
@<TRIPOS>NORMAL
@<TRIPOS>FF_PBC
FORCE_FIELD_SETUP_FEATURE Force Field Setup information
v1.0  0 0.000000 0.000000 0.000000 0.000000 0.000000 0.000000 NONE 0 0 0 0 1 0 0 0 0 0 0 0 0
