@<TRIPOS>MOLECULE
MOL000003
   26    25     1     1     0
SMALL
GASTEIGER


@<TRIPOS>ATOM
      1 C          -0.325457   -0.847586    0.709700 C.3       1 <1>         0.111435 
      2 C           1.061093   -0.427463    0.139523 C.3       1 <1>         0.111435 
      3 C          -1.364083    0.311860    0.735816 C.3       1 <1>         0.106487 
      4 O          -0.828556   -1.965257   -0.051829 O.3       1 <1>        -0.386500 
      5 C           0.968753    0.373659   -1.192210 C.3       1 <1>         0.106487 
      6 O           1.772464    0.329506    1.141182 O.3       1 <1>        -0.386500 
      7 C          -2.619000   -0.106221    1.550220 C.3       1 <1>         0.072650 
      8 O          -0.776149    1.495328    1.311130 O.3       1 <1>        -0.386870 
      9 C           2.377150    0.525110   -1.829331 C.3       1 <1>         0.072650 
     10 O           0.081084   -0.290430   -2.113151 O.3       1 <1>        -0.386870 
     11 O          -3.132884   -1.356316    1.047699 O.3       1 <1>        -0.392376 
     12 O           3.293130    1.078800   -0.862936 O.3       1 <1>        -0.392376 
     13 H          -0.145290   -1.179837    1.746927 H         1 <1>         0.064662 
     14 H           1.612831   -1.364093   -0.052722 H         1 <1>         0.064662 
     15 H          -1.677620    0.503011   -0.305024 H         1 <1>         0.064289 
     16 H          -1.685725   -2.254353    0.253480 H         1 <1>         0.210003 
     17 H           0.590594    1.381793   -0.950076 H         1 <1>         0.064289 
     18 H           2.628392    0.620747    0.834231 H         1 <1>         0.210003 
     19 H          -2.334204   -0.209290    2.610912 H         1 <1>         0.058361 
     20 H          -3.384479    0.684420    1.469136 H         1 <1>         0.058361 
     21 H          -1.356985    2.249487    1.308999 H         1 <1>         0.209989 
     22 H           2.307287    1.182209   -2.713121 H         1 <1>         0.058361 
     23 H           2.724967   -0.468289   -2.159386 H         1 <1>         0.058361 
     24 H          -0.046802    0.183465   -2.928707 H         1 <1>         0.209989 
     25 H          -3.912601   -1.649889    1.512054 H         1 <1>         0.209508 
     26 H           4.172287    1.199928   -1.212623 H         1 <1>         0.209508 
@<TRIPOS>BOND
     1    1    2 1    
     2    1    3 1    
     3    1    4 1    
     4    1   13 1    
     5    2    5 1    
     6    2    6 1    
     7    2   14 1    
     8    3    7 1    
     9    3    8 1    
    10    3   15 1    
    11    4   16 1    
    12    5    9 1    
    13    5   10 1    
    14    5   17 1    
    15    6   18 1    
    16    7   11 1    
    17    7   19 1    
    18    7   20 1    
    19    8   21 1    
    20    9   12 1    
    21    9   22 1    
    22    9   23 1    
    23   10   24 1    
    24   11   25 1    
    25   12   26 1    
@<TRIPOS>SUBSTRUCTURE
     1 ****        1 TEMP              0 ****  ****    0 ROOT 
@<TRIPOS>NORMAL
@<TRIPOS>FF_PBC
FORCE_FIELD_SETUP_FEATURE Force Field Setup information
v1.0  0 0.000000 0.000000 0.000000 0.000000 0.000000 0.000000 NONE 0 0 0 0 1 0 0 0 0 0 0 0 0
