@<TRIPOS>MOLECULE
MOL004856
   46    48     1     1     0
SMALL
GASTEIGER


@<TRIPOS>ATOM
      1 O           0.167764   -0.194873    0.460351 O.3       1 <1>        -0.315268 
      2 O           1.676144    3.225261   -1.048350 O.2       1 <1>        -0.286389 
      3 O          -0.621589    4.574478   -0.332359 O.3       1 <1>        -0.358673 
      4 O          -4.417655    1.529062    0.482559 O.3       1 <1>        -0.359385 
      5 O           7.878265    1.500091    0.167869 O.3       1 <1>        -0.347912 
      6 C          -0.241062    2.191992   -0.105946 C.ar      1 <1>         0.082793 
      7 C          -0.731088    0.845338    0.248107 C.ar      1 <1>         0.098077 
      8 C           1.225214    2.279789   -0.417943 C.2       1 <1>         0.200581 
      9 C          -1.116425    3.286720   -0.130263 C.ar      1 <1>         0.091795 
     10 C           2.059123    1.161383    0.050787 C.2       1 <1>         0.052653 
     11 C          -2.570434    3.067695    0.079454 C.ar      1 <1>         0.016576 
     12 C          -3.049851    1.757540    0.307371 C.ar      1 <1>         0.080983 
     13 C          -2.097262    0.622565    0.397623 C.ar      1 <1>        -0.000278 
     14 C           3.570523    1.291297    0.053812 C.ar      1 <1>        -0.012137 
     15 C           1.491415    0.016852    0.473042 C.2       1 <1>         0.058255 
     16 C          -3.476795    4.308867    0.042227 C.3       1 <1>        -0.004339 
     17 C           4.413573    0.097429   -0.204543 C.ar      1 <1>        -0.051413 
     18 C           4.207574    2.519617    0.294421 C.ar      1 <1>        -0.051413 
     19 C           6.475921    1.475875    0.126719 C.ar      1 <1>         0.075849 
     20 C           5.805048    0.186449   -0.141397 C.ar      1 <1>        -0.031115 
     21 C           5.689727    2.623200    0.321345 C.ar      1 <1>        -0.031115 
     22 C          -4.910244    4.152375   -0.411717 C.2       1 <1>        -0.080815 
     23 C          -5.878500    5.038513   -0.120518 C.2       1 <1>        -0.079306 
     24 C          -7.312003    4.780760   -0.528103 C.3       1 <1>        -0.044040 
     25 C          -5.642576    6.334000    0.629096 C.3       1 <1>        -0.044040 
     26 C           8.631252    2.722364    0.220945 C.3       1 <1>         0.043026 
     27 H          -0.589697    5.024753    0.507775 H         1 <1>         0.217354 
     28 H          -4.661259    0.627364    0.671642 H         1 <1>         0.217328 
     29 H          -2.460375   -0.379379    0.607479 H         1 <1>         0.066956 
     30 H           2.077771   -0.813639    0.856058 H         1 <1>         0.089749 
     31 H          -3.441503    4.673764    1.079333 H         1 <1>         0.035721 
     32 H          -3.034901    5.070993   -0.621656 H         1 <1>         0.035721 
     33 H           3.969449   -0.858035   -0.457792 H         1 <1>         0.062443 
     34 H           3.630785    3.415855    0.474022 H         1 <1>         0.062443 
     35 H           6.415252   -0.694474   -0.307268 H         1 <1>         0.064346 
     36 H           6.136112    3.591907    0.492184 H         1 <1>         0.064346 
     37 H          -5.176027    3.278984   -1.008260 H         1 <1>         0.057473 
     38 H          -7.812644    5.703384   -0.855888 H         1 <1>         0.027427 
     39 H          -7.856198    4.379628    0.339670 H         1 <1>         0.027427 
     40 H          -7.391147    4.062790   -1.355340 H         1 <1>         0.027427 
     41 H          -4.589209    6.635324    0.691329 H         1 <1>         0.027427 
     42 H          -6.038801    6.238204    1.649913 H         1 <1>         0.027427 
     43 H          -6.166351    7.161872    0.123777 H         1 <1>         0.027427 
     44 H           9.696675    2.440770    0.222992 H         1 <1>         0.052869 
     45 H           8.413589    3.287550    1.139664 H         1 <1>         0.052869 
     46 H           8.421603    3.339370   -0.665877 H         1 <1>         0.052869 
@<TRIPOS>BOND
     1    1    7 1    
     2   15    1 1    
     3    8    2 2    
     4    9    3 1    
     5    3   27 1    
     6   12    4 1    
     7    4   28 1    
     8   19    5 1    
     9    5   26 1    
    10    6    7 1    
    11    8    6 1    
    12    6    9 2    
    13    7   13 2    
    14   10    8 1    
    15    9   11 1    
    16   14   10 1    
    17   10   15 2    
    18   11   12 2    
    19   11   16 1    
    20   13   12 1    
    21   13   29 1    
    22   17   14 1    
    23   14   18 2    
    24   15   30 1    
    25   16   22 1    
    26   16   31 1    
    27   16   32 1    
    28   20   17 2    
    29   17   33 1    
    30   18   21 1    
    31   18   34 1    
    32   19   20 1    
    33   19   21 2    
    34   20   35 1    
    35   21   36 1    
    36   22   23 2    
    37   22   37 1    
    38   23   24 1    
    39   23   25 1    
    40   24   38 1    
    41   24   39 1    
    42   24   40 1    
    43   25   41 1    
    44   25   42 1    
    45   25   43 1    
    46   26   44 1    
    47   26   45 1    
    48   26   46 1    
@<TRIPOS>SUBSTRUCTURE
     1 ****        5 TEMP              0 ****  ****    0 ROOT 
@<TRIPOS>NORMAL
@<TRIPOS>FF_PBC
FORCE_FIELD_SETUP_FEATURE Force Field Setup information
v1.0  0 0.000000 0.000000 0.000000 0.000000 0.000000 0.000000 NONE 0 0 0 0 1 0 0 0 0 0 0 0 0
