@<TRIPOS>MOLECULE
MOL004735
   18    18     1     1     0
SMALL
GASTEIGER


@<TRIPOS>ATOM
      1 C           0.995287   -0.182954    1.095104 C.3       1 <1>        -0.053057 
      2 C          -0.269901    0.691923    1.293081 C.3       1 <1>        -0.053057 
      3 C           0.720739   -1.303977    0.059205 C.3       1 <1>        -0.053057 
      4 C          -0.721971    1.303374   -0.058674 C.3       1 <1>        -0.053057 
      5 C           0.270728   -0.691817   -1.292788 C.3       1 <1>        -0.053057 
      6 C          -0.994740    0.182846   -1.095725 C.3       1 <1>        -0.053057 
      7 H           1.290388   -0.632019    2.058458 H         1 <1>         0.026528 
      8 H           1.828362    0.448006    0.743367 H         1 <1>         0.026528 
      9 H          -1.083508    0.074701    1.708893 H         1 <1>         0.026528 
     10 H          -0.053183    1.500289    2.011749 H         1 <1>         0.026528 
     11 H           1.634778   -1.902989   -0.090481 H         1 <1>         0.026528 
     12 H          -0.067452   -1.973736    0.441098 H         1 <1>         0.026528 
     13 H          -1.637276    1.900352    0.091848 H         1 <1>         0.026528 
     14 H           0.064652    1.975145   -0.440512 H         1 <1>         0.026528 
     15 H           0.055168   -1.499536   -2.012445 H         1 <1>         0.026528 
     16 H           1.084859   -0.074159   -1.706941 H         1 <1>         0.026528 
     17 H          -1.828290   -0.448388   -0.745670 H         1 <1>         0.026528 
     18 H          -1.288440    0.632737   -2.059167 H         1 <1>         0.026528 
@<TRIPOS>BOND
     1    1    2 1    
     2    1    3 1    
     3    1    7 1    
     4    1    8 1    
     5    2    4 1    
     6    2    9 1    
     7    2   10 1    
     8    3    5 1    
     9    3   11 1    
    10    3   12 1    
    11    4    6 1    
    12    4   13 1    
    13    4   14 1    
    14    5    6 1    
    15    5   15 1    
    16    5   16 1    
    17    6   17 1    
    18    6   18 1    
@<TRIPOS>SUBSTRUCTURE
     1 ****        1 TEMP              0 ****  ****    0 ROOT 
@<TRIPOS>NORMAL
@<TRIPOS>FF_PBC
FORCE_FIELD_SETUP_FEATURE Force Field Setup information
v1.0  0 0.000000 0.000000 0.000000 0.000000 0.000000 0.000000 NONE 0 0 0 0 1 0 0 0 0 0 0 0 0
