@<TRIPOS>MOLECULE
MOL005125
   19    19     1     1     0
SMALL
GASTEIGER


@<TRIPOS>ATOM
      1 C           1.257154    1.078988   -0.188789 C.ar      1 <1>         0.046437 
      2 C           1.801051   -0.218950    0.280333 C.ar      1 <1>        -0.046444 
      3 C          -0.130761    1.210017   -0.391634 C.ar      1 <1>        -0.046444 
      4 C           2.186104    2.246237   -0.445293 C.2       1 <1>         0.291238 
      5 C           0.940421   -1.301860    0.518169 C.ar      1 <1>        -0.030953 
      6 C          -1.042131    0.067388   -0.140985 C.ar      1 <1>        -0.030953 
      7 O           1.686714    3.411525   -0.866331 O.3       1 <1>        -0.327490 
      8 O           3.386916    2.113371   -0.265050 O.2       1 <1>        -0.259430 
      9 C          -0.520240   -1.173062    0.307293 C.ar      1 <1>         0.075853 
     10 O          -1.334616   -2.285358    0.559410 O.3       1 <1>        -0.347912 
     11 C          -2.758611   -2.241646    0.373453 C.3       1 <1>         0.043026 
     12 H           2.868168   -0.334306    0.441072 H         1 <1>         0.062606 
     13 H          -0.544686    2.152705   -0.734497 H         1 <1>         0.062606 
     14 H           1.340792   -2.249979    0.861196 H         1 <1>         0.064348 
     15 H          -2.101961    0.210862   -0.309385 H         1 <1>         0.064348 
     16 H           2.361918    4.069331   -0.993324 H         1 <1>         0.220555 
     17 H          -3.161355   -3.231395    0.634379 H         1 <1>         0.052869 
     18 H          -3.220981   -1.494100    1.036133 H         1 <1>         0.052869 
     19 H          -3.013592   -2.029766   -0.676250 H         1 <1>         0.052869 
@<TRIPOS>BOND
     1    1    2 1    
     2    1    3 2    
     3    1    4 1    
     4    2    5 2    
     5    2   12 1    
     6    3    6 1    
     7    3   13 1    
     8    4    7 1    
     9    4    8 2    
    10    5    9 1    
    11    5   14 1    
    12    6    9 2    
    13    6   15 1    
    14    7   16 1    
    15    9   10 1    
    16   10   11 1    
    17   11   17 1    
    18   11   18 1    
    19   11   19 1    
@<TRIPOS>SUBSTRUCTURE
     1 ****        1 TEMP              0 ****  ****    0 ROOT 
@<TRIPOS>NORMAL
@<TRIPOS>FF_PBC
FORCE_FIELD_SETUP_FEATURE Force Field Setup information
v1.0  0 0.000000 0.000000 0.000000 0.000000 0.000000 0.000000 NONE 0 0 0 0 1 0 0 0 0 0 0 0 0
