@<TRIPOS>MOLECULE
MOL005375
   62    61     1     1     0
SMALL
GASTEIGER


@<TRIPOS>ATOM
      1 C          -1.446369    3.014441   -0.220688 C.3       1 <1>        -0.053057 
      2 C          -0.101254    2.239726   -0.278977 C.3       1 <1>        -0.053057 
      3 C          -1.216322    4.550713   -0.202865 C.3       1 <1>        -0.053056 
      4 C          -0.334018    0.704001   -0.298642 C.3       1 <1>        -0.053057 
      5 C          -2.562867    5.323603   -0.141380 C.3       1 <1>        -0.052986 
      6 C           1.010384   -0.072564   -0.348387 C.3       1 <1>        -0.053057 
      7 C          -2.332569    6.860205   -0.113917 C.3       1 <1>        -0.050962 
      8 C           0.776156   -1.608141   -0.360666 C.3       1 <1>        -0.053057 
      9 C          -3.651091    7.681896   -0.197283 C.3       1 <1>        -0.028873 
     10 C           2.119885   -2.386571   -0.397962 C.3       1 <1>        -0.053057 
     11 C          -4.599166    7.463148    1.009515 C.3       1 <1>         0.057053 
     12 C           1.883810   -3.921920   -0.392339 C.3       1 <1>        -0.053057 
     13 O          -5.691508    8.397661    0.890323 O.3       1 <1>        -0.315403 
     14 C           3.226646   -4.702531   -0.413550 C.3       1 <1>        -0.053057 
     15 C          -6.586858    8.318952    1.885452 C.2       1 <1>         0.259041 
     16 C           2.988859   -6.237376   -0.384754 C.3       1 <1>        -0.053057 
     17 C          -7.734614    9.283224    1.778570 C.3       1 <1>         0.021433 
     18 O          -6.497080    7.532191    2.815549 O.2       1 <1>        -0.265283 
     19 C           4.331202   -7.019020   -0.392884 C.3       1 <1>        -0.053065 
     20 C           4.093174   -8.553287   -0.344904 C.3       1 <1>        -0.053306 
     21 C           5.435531   -9.334421   -0.347414 C.3       1 <1>        -0.055911 
     22 C           5.197051  -10.865876   -0.289683 C.3       1 <1>        -0.065276 
     23 H          -2.058359    2.748275   -1.098214 H         1 <1>         0.026528 
     24 H          -1.997180    2.717502    0.687028 H         1 <1>         0.026528 
     25 H           0.509246    2.504667    0.599975 H         1 <1>         0.026528 
     26 H           0.451857    2.535883   -1.185532 H         1 <1>         0.026528 
     27 H          -0.603071    4.818178    0.673563 H         1 <1>         0.026528 
     28 H          -0.665781    4.844532   -1.111722 H         1 <1>         0.026528 
     29 H          -0.941092    0.438306   -1.179762 H         1 <1>         0.026528 
     30 H          -0.891176    0.409211    0.605918 H         1 <1>         0.026528 
     31 H          -3.174034    5.061506   -1.020551 H         1 <1>         0.026529 
     32 H          -3.101763    5.007533    0.765419 H         1 <1>         0.026529 
     33 H           1.617619    0.195890    0.531722 H         1 <1>         0.026528 
     34 H           1.567389    0.218727   -1.254109 H         1 <1>         0.026528 
     35 H          -1.785005    7.133710    0.803074 H         1 <1>         0.026599 
     36 H          -1.705292    7.137817   -0.977765 H         1 <1>         0.026599 
     37 H           0.173334   -1.878689   -1.243224 H         1 <1>         0.026528 
     38 H           0.213998   -1.896540    0.542830 H         1 <1>         0.026528 
     39 H          -3.392035    8.753646   -0.231766 H         1 <1>         0.028748 
     40 H          -4.190145    7.435880   -1.126894 H         1 <1>         0.028748 
     41 H           2.724879   -2.108845    0.480832 H         1 <1>         0.026528 
     42 H           2.679909   -2.106187   -1.305212 H         1 <1>         0.026528 
     43 H          -4.990635    6.432831    1.002921 H         1 <1>         0.056579 
     44 H          -4.043228    7.636940    1.946455 H         1 <1>         0.056579 
     45 H           1.284365   -4.202689   -1.274046 H         1 <1>         0.026528 
     46 H           1.317556   -4.198435    0.512264 H         1 <1>         0.026528 
     47 H           3.829524   -4.412286    0.462609 H         1 <1>         0.026528 
     48 H           3.789489   -4.436449   -1.323403 H         1 <1>         0.026528 
     49 H           2.390097   -6.530733   -1.262762 H         1 <1>         0.026528 
     50 H           2.421493   -6.500062    0.523326 H         1 <1>         0.026528 
     51 H          -8.418786    9.170395    2.633051 H         1 <1>         0.033023 
     52 H          -8.288716    9.090967    0.848084 H         1 <1>         0.033023 
     53 H          -7.348171   10.312907    1.762723 H         1 <1>         0.033023 
     54 H           4.933123   -6.717867    0.480269 H         1 <1>         0.026528 
     55 H           4.895454   -6.765106   -1.305384 H         1 <1>         0.026528 
     56 H           3.493081   -8.857480   -1.218286 H         1 <1>         0.026520 
     57 H           3.528058   -8.806250    0.567311 H         1 <1>         0.026520 
     58 H           6.040663   -9.031910    0.523617 H         1 <1>         0.026265 
     59 H           6.002112   -9.091757   -1.261946 H         1 <1>         0.026265 
     60 H           6.160438  -11.399974   -0.292918 H         1 <1>         0.022978 
     61 H           4.610366  -11.196599   -1.160930 H         1 <1>         0.022978 
     62 H           4.650639  -11.135392    0.627626 H         1 <1>         0.022978 
@<TRIPOS>BOND
     1    1    2 1    
     2    1    3 1    
     3    1   23 1    
     4    1   24 1    
     5    2    4 1    
     6    2   25 1    
     7    2   26 1    
     8    3    5 1    
     9    3   27 1    
    10    3   28 1    
    11    4    6 1    
    12    4   29 1    
    13    4   30 1    
    14    5    7 1    
    15    5   31 1    
    16    5   32 1    
    17    6    8 1    
    18    6   33 1    
    19    6   34 1    
    20    7    9 1    
    21    7   35 1    
    22    7   36 1    
    23    8   10 1    
    24    8   37 1    
    25    8   38 1    
    26    9   11 1    
    27    9   39 1    
    28    9   40 1    
    29   10   12 1    
    30   10   41 1    
    31   10   42 1    
    32   11   13 1    
    33   11   43 1    
    34   11   44 1    
    35   12   14 1    
    36   12   45 1    
    37   12   46 1    
    38   13   15 1    
    39   14   16 1    
    40   14   47 1    
    41   14   48 1    
    42   15   17 1    
    43   15   18 2    
    44   16   19 1    
    45   16   49 1    
    46   16   50 1    
    47   17   51 1    
    48   17   52 1    
    49   17   53 1    
    50   19   20 1    
    51   19   54 1    
    52   19   55 1    
    53   20   21 1    
    54   20   56 1    
    55   20   57 1    
    56   21   22 1    
    57   21   58 1    
    58   21   59 1    
    59   22   60 1    
    60   22   61 1    
    61   22   62 1    
@<TRIPOS>SUBSTRUCTURE
     1 ****        1 TEMP              0 ****  ****    0 ROOT 
@<TRIPOS>NORMAL
@<TRIPOS>FF_PBC
FORCE_FIELD_SETUP_FEATURE Force Field Setup information
v1.0  0 0.000000 0.000000 0.000000 0.000000 0.000000 0.000000 NONE 0 0 0 0 1 0 0 0 0 0 0 0 0
