@<TRIPOS>MOLECULE
MOL005812
   73    77     1     1     0
SMALL
GASTEIGER


@<TRIPOS>ATOM
      1 C           2.880543    0.320658    1.567116 C.ar      1 <1>         0.092370 
      2 C           2.992684    1.521324    2.173721 C.ar      1 <1>         0.077223 
      3 O           4.001111   -0.486976    1.357125 O.3       1 <1>        -0.335586 
      4 C           1.557687   -0.144463    1.098066 C.ar      1 <1>        -0.000657 
      5 C           4.367845    2.006230    2.566254 C.2       1 <1>         0.170906 
      6 C           1.777483    2.337278    2.437690 C.ar      1 <1>         0.087976 
      7 C           5.245870    0.199123    1.160912 C.3       1 <1>         0.097162 
      8 C           0.462002    0.618751    1.275515 C.ar      1 <1>         0.084385 
      9 C           5.543254    1.087952    2.390243 C.3       1 <1>         0.041564 
     10 O           4.513975    3.132865    3.015259 O.2       1 <1>        -0.291783 
     11 C           0.578168    1.897751    2.024022 C.ar      1 <1>        -0.000944 
     12 O           1.856692    3.555082    3.118706 O.3       1 <1>        -0.358966 
     13 C           6.347836   -0.848884    0.970769 C.ar      1 <1>        -0.017820 
     14 O          -0.741010    0.184982    0.717269 O.3       1 <1>        -0.312375 
     15 C           7.275992   -0.766800   -0.185124 C.ar      1 <1>        -0.053661 
     16 C           6.486951   -1.906664    1.895605 C.ar      1 <1>        -0.053661 
     17 C          -2.012488    0.781447    1.006395 C.3       1 <1>         0.194011 
     18 C           8.293363   -1.720445   -0.343531 C.ar      1 <1>        -0.031601 
     19 C           7.565115   -2.908709    1.730777 C.ar      1 <1>        -0.031601 
     20 C          -3.002881    0.194204   -0.031276 C.3       1 <1>         0.141013 
     21 O          -2.313657    0.438898    2.369545 O.3       1 <1>        -0.340157 
     22 C           8.458335   -2.816410    0.639463 C.ar      1 <1>         0.072600 
     23 O          -2.685956    0.912302   -1.249037 O.3       1 <1>        -0.337748 
     24 C          -4.472985    0.440514    0.396904 C.3       1 <1>         0.114441 
     25 C          -3.634745    0.848873    2.764073 C.3       1 <1>         0.113017 
     26 O           9.494875   -3.735982    0.464131 O.3       1 <1>        -0.359832 
     27 C          -3.147439    0.294318   -2.459845 C.3       1 <1>         0.188431 
     28 C          -4.682435    0.102782    1.895294 C.3       1 <1>         0.111906 
     29 O          -5.366153   -0.371938   -0.390442 O.3       1 <1>        -0.386391 
     30 C          -3.798346    0.498179    4.263465 C.3       1 <1>         0.073015 
     31 C          -2.777506    1.236723   -3.631748 C.3       1 <1>         0.134123 
     32 O          -2.406318   -0.937924   -2.543755 O.3       1 <1>        -0.343067 
     33 O          -6.027709    0.492676    2.234413 O.3       1 <1>        -0.386488 
     34 O          -5.146896    0.785884    4.682392 O.3       1 <1>        -0.392366 
     35 C          -3.068852    0.525174   -4.980073 C.3       1 <1>         0.113972 
     36 O          -3.528185    2.465857   -3.518378 O.3       1 <1>        -0.384104 
     37 C          -2.630955   -1.678842   -3.755046 C.3       1 <1>         0.087307 
     38 C          -2.305871   -0.824136   -5.016024 C.3       1 <1>         0.109478 
     39 O          -4.489992    0.359693   -5.154244 O.3       1 <1>        -0.386402 
     40 C          -4.031543   -2.350382   -3.768997 C.3       1 <1>        -0.036060 
     41 O          -0.900968   -0.498642   -5.079741 O.3       1 <1>        -0.386579 
     42 H           1.479504   -1.097123    0.586798 H         1 <1>         0.066941 
     43 H           5.163029    0.824514    0.256585 H         1 <1>         0.065571 
     44 H           6.473123    1.657632    2.234522 H         1 <1>         0.037400 
     45 H           5.640669    0.480990    3.302270 H         1 <1>         0.037400 
     46 H          -0.292150    2.499371    2.252881 H         1 <1>         0.066933 
     47 H           2.748460    3.819935    3.324409 H         1 <1>         0.217342 
     48 H           7.168404    0.029542   -0.914801 H         1 <1>         0.062190 
     49 H           5.804714   -1.991665    2.735444 H         1 <1>         0.062190 
     50 H          -1.999059    1.871904    0.854104 H         1 <1>         0.094170 
     51 H           8.968705   -1.662305   -1.190558 H         1 <1>         0.064329 
     52 H           7.658809   -3.707282    2.458525 H         1 <1>         0.064329 
     53 H          -2.818834   -0.891227   -0.090130 H         1 <1>         0.067490 
     54 H          -4.692873    1.511154    0.236664 H         1 <1>         0.064768 
     55 H          -3.772271    1.937151    2.652954 H         1 <1>         0.064668 
     56 H           9.613788   -4.332417    1.195249 H         1 <1>         0.217313 
     57 H          -4.239105    0.166775   -2.450917 H         1 <1>         0.093753 
     58 H          -4.552723   -0.986117    2.025419 H         1 <1>         0.064673 
     59 H          -6.276372   -0.237162   -0.141451 H         1 <1>         0.210005 
     60 H          -3.573930   -0.571983    4.410364 H         1 <1>         0.058370 
     61 H          -3.070101    1.092356    4.843471 H         1 <1>         0.058370 
     62 H          -1.697313    1.449968   -3.545042 H         1 <1>         0.067095 
     63 H          -6.214423    0.362766    3.161688 H         1 <1>         0.210004 
     64 H          -5.286815    0.614202    5.609954 H         1 <1>         0.209508 
     65 H          -2.686038    1.170463   -5.791116 H         1 <1>         0.064757 
     66 H          -3.325941    3.092138   -4.205492 H         1 <1>         0.210110 
     67 H          -1.898488   -2.503089   -3.716657 H         1 <1>         0.062075 
     68 H          -2.585290   -1.378731   -5.929008 H         1 <1>         0.064584 
     69 H          -4.726289   -0.016741   -5.996407 H         1 <1>         0.210005 
     70 H          -4.120426   -3.019077   -4.639063 H         1 <1>         0.025536 
     71 H          -4.143033   -2.950824   -2.853122 H         1 <1>         0.025536 
     72 H          -4.860864   -1.633929   -3.803740 H         1 <1>         0.025536 
     73 H          -0.329988   -1.259693   -5.116061 H         1 <1>         0.210002 
@<TRIPOS>BOND
     1    1    2 2    
     2    1    3 1    
     3    1    4 1    
     4    2    5 1    
     5    2    6 1    
     6    3    7 1    
     7    4    8 2    
     8    4   42 1    
     9    5    9 1    
    10    5   10 2    
    11    6   11 2    
    12    6   12 1    
    13    7    9 1    
    14    7   13 1    
    15    7   43 1    
    16    8   11 1    
    17    8   14 1    
    18    9   44 1    
    19    9   45 1    
    20   11   46 1    
    21   12   47 1    
    22   13   15 1    
    23   13   16 2    
    24   14   17 1    
    25   15   18 2    
    26   15   48 1    
    27   16   19 1    
    28   16   49 1    
    29   17   20 1    
    30   17   21 1    
    31   17   50 1    
    32   18   22 1    
    33   18   51 1    
    34   19   22 2    
    35   19   52 1    
    36   20   23 1    
    37   20   24 1    
    38   20   53 1    
    39   21   25 1    
    40   22   26 1    
    41   23   27 1    
    42   24   28 1    
    43   24   29 1    
    44   24   54 1    
    45   25   28 1    
    46   25   30 1    
    47   25   55 1    
    48   26   56 1    
    49   27   31 1    
    50   27   32 1    
    51   27   57 1    
    52   28   33 1    
    53   28   58 1    
    54   29   59 1    
    55   30   34 1    
    56   30   60 1    
    57   30   61 1    
    58   31   35 1    
    59   31   36 1    
    60   31   62 1    
    61   32   37 1    
    62   33   63 1    
    63   34   64 1    
    64   35   38 1    
    65   35   39 1    
    66   35   65 1    
    67   36   66 1    
    68   37   38 1    
    69   37   40 1    
    70   37   67 1    
    71   38   41 1    
    72   38   68 1    
    73   39   69 1    
    74   40   70 1    
    75   40   71 1    
    76   40   72 1    
    77   41   73 1    
@<TRIPOS>SUBSTRUCTURE
     1 ****        1 TEMP              0 ****  ****    0 ROOT 
@<TRIPOS>NORMAL
@<TRIPOS>FF_PBC
FORCE_FIELD_SETUP_FEATURE Force Field Setup information
v1.0  0 0.000000 0.000000 0.000000 0.000000 0.000000 0.000000 NONE 0 0 0 0 1 0 0 0 0 0 0 0 0
