@<TRIPOS>MOLECULE
MOL006938
   28    29     1     1     0
SMALL
GASTEIGER


@<TRIPOS>ATOM
      1 O          -2.344384   -1.640294    1.357181 O.3       1 <1>        -0.392368 
      2 C          -0.984431   -1.555034    0.892551 C.3       1 <1>         0.072901 
      3 C          -0.223262   -0.507282    1.745207 C.3       1 <1>         0.109824 
      4 C          -0.783833    0.932670    1.593949 C.3       1 <1>         0.087442 
      5 O          -1.446395    1.385985    2.789721 O.3       1 <1>        -0.389006 
      6 C           0.503115    1.734157    1.310181 C.3       1 <1>         0.019342 
      7 C           1.350212    0.709813    0.514145 C.3       1 <1>         0.135341 
      8 O           1.169940   -0.420444    1.381495 O.3       1 <1>        -0.350164 
      9 N           0.978791    0.262202   -0.836319 N.am      1 <1>        -0.234994 
     10 C           0.183875    1.013445   -1.644314 C.2       1 <1>         0.314537 
     11 O          -0.266540    2.093173   -1.304459 O.2       1 <1>        -0.251787 
     12 N          -0.127473    0.558243   -2.875184 N.am      1 <1>        -0.236134 
     13 C           0.336769   -0.612576   -3.342189 C.2       1 <1>         0.245462 
     14 O           0.053812   -1.035340   -4.450849 O.2       1 <1>        -0.270338 
     15 C           1.218819   -1.398208   -2.474910 C.2       1 <1>         0.014768 
     16 C           1.500250   -0.918689   -1.260296 C.2       1 <1>         0.008154 
     17 H          -2.864821   -2.281728    0.882227 H         1 <1>         0.209508 
     18 H          -0.475210   -2.527185    1.003532 H         1 <1>         0.058369 
     19 H          -0.968756   -1.272869   -0.171671 H         1 <1>         0.058369 
     20 H          -0.266851   -0.820382    2.800849 H         1 <1>         0.064554 
     21 H          -1.465629    0.989838    0.728009 H         1 <1>         0.062116 
     22 H          -1.751501    2.285112    2.719096 H         1 <1>         0.209892 
     23 H           0.344873    2.715765    0.842355 H         1 <1>         0.033251 
     24 H           1.006501    1.915218    2.275161 H         1 <1>         0.033251 
     25 H           2.410809    1.012376    0.501503 H         1 <1>         0.081406 
     26 H          -0.721035    1.106088   -3.465925 H         1 <1>         0.159387 
     27 H           1.624360   -2.345424   -2.831187 H         1 <1>         0.068206 
     28 H           2.161458   -1.508189   -0.620956 H         1 <1>         0.078711 
@<TRIPOS>BOND
     1    1    2 1    
     2    1   17 1    
     3    2    3 1    
     4    2   18 1    
     5    2   19 1    
     6    3    4 1    
     7    3    8 1    
     8    3   20 1    
     9    4    5 1    
    10    4    6 1    
    11    4   21 1    
    12    5   22 1    
    13    6    7 1    
    14    6   23 1    
    15    6   24 1    
    16    7    8 1    
    17    7    9 1    
    18    7   25 1    
    19    9   10 1    
    20    9   16 1    
    21   10   11 2    
    22   10   12 1    
    23   12   13 1    
    24   12   26 1    
    25   13   14 2    
    26   13   15 1    
    27   15   16 2    
    28   15   27 1    
    29   16   28 1    
@<TRIPOS>SUBSTRUCTURE
     1 ****        1 TEMP              0 ****  ****    0 ROOT 
@<TRIPOS>NORMAL
@<TRIPOS>FF_PBC
FORCE_FIELD_SETUP_FEATURE Force Field Setup information
v1.0  0 0.000000 0.000000 0.000000 0.000000 0.000000 0.000000 NONE 0 0 0 0 1 0 0 0 0 0 0 0 0
