@<TRIPOS>MOLECULE
MOL004722
   40    41     1     1     0
SMALL
GASTEIGER


@<TRIPOS>ATOM
      1 C           0.670574    2.017067   -1.886643 C.2       1 <1>         0.133656 
      2 C           1.845114    2.333016   -2.775933 C.3       1 <1>        -0.005775 
      3 O           0.113921    2.896812   -1.249880 O.2       1 <1>        -0.297399 
      4 C           1.267039   -0.549915   -1.682003 C.3       1 <1>        -0.042693 
      5 C          -0.982679   -1.305559   -0.981789 C.3       1 <1>        -0.016405 
      6 C           0.476443   -1.793107   -1.177537 C.3       1 <1>        -0.045594 
      7 C          -0.880983    0.231548   -0.762304 C.3       1 <1>        -0.021962 
      8 C           0.210449    0.582654   -1.812375 C.3       1 <1>         0.020863 
      9 C          -1.766820   -2.094504    0.043772 C.2       1 <1>        -0.073224 
     10 C          -0.751161    0.681369    0.745616 C.3       1 <1>        -0.034407 
     11 C          -1.938089   -0.033551    1.467515 C.3       1 <1>        -0.045994 
     12 C          -1.753586   -1.573240    1.458643 C.3       1 <1>        -0.031456 
     13 C          -2.437705   -3.206400   -0.289930 C.2       1 <1>        -0.099175 
     14 C           0.617844    0.543452    1.523601 C.3       1 <1>        -0.043588 
     15 C           1.637864    1.681348    1.198265 C.3       1 <1>        -0.062405 
     16 C           0.455079    0.587542    3.078839 C.3       1 <1>        -0.062405 
     17 H           1.692823    1.900601   -3.775966 H         1 <1>         0.030587 
     18 H           1.963406    3.422310   -2.879039 H         1 <1>         0.030587 
     19 H           2.767012    1.918717   -2.342460 H         1 <1>         0.030587 
     20 H           2.057949   -0.297324   -0.963835 H         1 <1>         0.027221 
     21 H           1.760123   -0.745079   -2.649525 H         1 <1>         0.027221 
     22 H          -1.491550   -1.449584   -1.953432 H         1 <1>         0.034847 
     23 H           0.516836   -2.624905   -1.901437 H         1 <1>         0.027125 
     24 H           0.885236   -2.172820   -0.228625 H         1 <1>         0.027125 
     25 H          -1.823046    0.691701   -1.117280 H         1 <1>         0.031594 
     26 H          -0.252741    0.440260   -2.806230 H         1 <1>         0.038013 
     27 H          -0.990288    1.757894    0.789523 H         1 <1>         0.030640 
     28 H          -2.887374    0.188657    0.950837 H         1 <1>         0.027113 
     29 H          -2.080288    0.335384    2.494184 H         1 <1>         0.027113 
     30 H          -0.799880   -1.877448    1.910375 H         1 <1>         0.031008 
     31 H          -2.562447   -2.026674    2.054877 H         1 <1>         0.031008 
     32 H          -3.001742   -3.777229    0.446956 H         1 <1>         0.053449 
     33 H          -2.440421   -3.583517   -1.312176 H         1 <1>         0.053449 
     34 H           1.087407   -0.421098    1.291655 H         1 <1>         0.029823 
     35 H           2.555667    1.574676    1.797119 H         1 <1>         0.023242 
     36 H           1.969204    1.688715    0.160842 H         1 <1>         0.023242 
     37 H           1.200154    2.666069    1.423246 H         1 <1>         0.023242 
     38 H           1.433398    0.575962    3.584277 H         1 <1>         0.023242 
     39 H          -0.090217   -0.276295    3.482310 H         1 <1>         0.023242 
     40 H          -0.067931    1.509033    3.378296 H         1 <1>         0.023242 
@<TRIPOS>BOND
     1    1    2 1    
     2    1    3 2    
     3    8    1 1    
     4    2   17 1    
     5    2   18 1    
     6    2   19 1    
     7    4    6 1    
     8    4    8 1    
     9    4   20 1    
    10    4   21 1    
    11    6    5 1    
    12    5    7 1    
    13    5    9 1    
    14    5   22 1    
    15    6   23 1    
    16    6   24 1    
    17    7    8 1    
    18    7   10 1    
    19    7   25 1    
    20    8   26 1    
    21    9   12 1    
    22    9   13 2    
    23   10   11 1    
    24   10   14 1    
    25   10   27 1    
    26   11   12 1    
    27   11   28 1    
    28   11   29 1    
    29   12   30 1    
    30   12   31 1    
    31   13   32 1    
    32   13   33 1    
    33   14   15 1    
    34   14   16 1    
    35   14   34 1    
    36   15   35 1    
    37   15   36 1    
    38   15   37 1    
    39   16   38 1    
    40   16   39 1    
    41   16   40 1    
@<TRIPOS>SUBSTRUCTURE
     1 ****        4 TEMP              0 ****  ****    0 ROOT 
@<TRIPOS>NORMAL
@<TRIPOS>FF_PBC
FORCE_FIELD_SETUP_FEATURE Force Field Setup information
v1.0  0 0.000000 0.000000 0.000000 0.000000 0.000000 0.000000 NONE 0 0 0 0 1 0 0 0 0 0 0 0 0
