@<TRIPOS>MOLECULE
MOL004058
   31    33     1     1     0
SMALL
GASTEIGER


@<TRIPOS>ATOM
      1 C           0.883982   -0.543879    0.285338 C.ar      1 <1>         0.085762 
      2 C           0.320287    0.825386    0.190416 C.ar      1 <1>         0.135122 
      3 C           0.031466   -1.671905    0.230013 C.ar      1 <1>         0.105669 
      4 C           2.380085   -0.631778    0.442846 C.2       1 <1>         0.193284 
      5 C          -1.072703    1.026387    0.055163 C.ar      1 <1>         0.213003 
      6 O           1.171593    1.933924    0.236076 O.3       1 <1>        -0.310021 
      7 C          -1.414900   -1.425781    0.083050 C.ar      1 <1>         0.120498 
      8 O           0.518556   -2.971590    0.316422 O.3       1 <1>        -0.346214 
      9 C           3.120269    0.633724    0.469047 C.2       1 <1>         0.011919 
     10 O           2.963579   -1.697756    0.545603 O.2       1 <1>        -0.287027 
     11 C          -1.957898   -0.167054    0.000273 C.ar      1 <1>         0.397416 
     12 O          -1.576395    2.332690   -0.022964 O.3       1 <1>        -0.338087 
     13 C           2.503834    1.819525    0.367604 C.2       1 <1>         0.061132 
     14 C          -2.537098   -2.365551   -0.003507 C.ar      1 <1>         0.053325 
     15 C           0.937504   -3.543431   -0.934446 C.3       1 <1>         0.043084 
     16 O          -3.332778   -0.213376   -0.131055 O.2       1 <1>        -0.209446 
     17 C          -2.990014    2.589326   -0.045764 C.3       1 <1>         0.043450 
     18 C           3.247175    3.130026    0.392408 C.3       1 <1>        -0.017387 
     19 C          -3.642139   -1.558613   -0.130009 C.ar      1 <1>         0.322844 
     20 H           4.203837    0.594015    0.574835 H         1 <1>         0.067856 
     21 H          -2.496393   -3.450046    0.026307 H         1 <1>         0.071424 
     22 H           1.323253   -4.554839   -0.738019 H         1 <1>         0.052870 
     23 H           0.089369   -3.619699   -1.632106 H         1 <1>         0.052870 
     24 H           1.738773   -2.949722   -1.400854 H         1 <1>         0.052870 
     25 H          -3.130185    3.680553   -0.065475 H         1 <1>         0.052875 
     26 H          -3.458921    2.166521   -0.947390 H         1 <1>         0.052875 
     27 H          -3.479272    2.194313    0.857982 H         1 <1>         0.052875 
     28 H           2.555748    3.980048    0.288015 H         1 <1>         0.029715 
     29 H           3.971254    3.162677   -0.435427 H         1 <1>         0.029715 
     30 H           3.785952    3.232613    1.346039 H         1 <1>         0.029715 
     31 H          -4.657221   -1.937110   -0.220222 H         1 <1>         0.176013 
@<TRIPOS>BOND
     1    1    2 1    
     2    1    3 2    
     3    1    4 1    
     4    2    5 2    
     5    2    6 1    
     6    3    7 1    
     7    3    8 1    
     8    4    9 1    
     9    4   10 2    
    10    5   11 1    
    11    5   12 1    
    12    6   13 1    
    13    7   11 2    
    14    7   14 1    
    15    8   15 1    
    16    9   13 2    
    17    9   20 1    
    18   11   16 1    
    19   12   17 1    
    20   13   18 1    
    21   14   19 2    
    22   14   21 1    
    23   15   22 1    
    24   15   23 1    
    25   15   24 1    
    26   16   19 1    
    27   17   25 1    
    28   17   26 1    
    29   17   27 1    
    30   18   28 1    
    31   18   29 1    
    32   18   30 1    
    33   19   31 1    
@<TRIPOS>SUBSTRUCTURE
     1 ****        1 TEMP              0 ****  ****    0 ROOT 
@<TRIPOS>NORMAL
@<TRIPOS>FF_PBC
FORCE_FIELD_SETUP_FEATURE Force Field Setup information
v1.0  0 0.000000 0.000000 0.000000 0.000000 0.000000 0.000000 NONE 0 0 0 0 1 0 0 0 0 0 0 0 0
