@<TRIPOS>MOLECULE
MOL001886
   16    15     1     1     0
SMALL
GASTEIGER


@<TRIPOS>ATOM
      1 C          -0.873635   -1.419541    0.179762 C.2       1 <1>         0.291533 
      2 C           0.292887   -0.795102   -0.548892 C.3       1 <1>         0.174817 
      3 C           0.224287    0.748453   -0.428189 C.3       1 <1>         0.174817 
      4 C           0.107139    1.144877    1.026025 C.2       1 <1>         0.291533 
      5 O          -0.719573   -2.297376    1.015307 O.2       1 <1>        -0.262177 
      6 O          -2.080008   -0.942279   -0.137913 O.3       1 <1>        -0.329247 
      7 O          -0.778749    1.886480    1.422131 O.2       1 <1>        -0.262177 
      8 O           1.027149    0.629490    1.844675 O.3       1 <1>        -0.329247 
      9 O           1.405820    1.304577   -1.045047 O.3       1 <1>        -0.378817 
     10 O           0.282444   -1.192963   -1.936490 O.3       1 <1>        -0.378817 
     11 H           1.224656   -1.148442   -0.074248 H         1 <1>         0.073009 
     12 H          -0.672114    1.094886   -0.971040 H         1 <1>         0.073009 
     13 H          -2.772147   -1.376255    0.349610 H         1 <1>         0.220293 
     14 H           0.901363    0.913986    2.743840 H         1 <1>         0.220293 
     15 H           1.426379    2.256846   -1.013613 H         1 <1>         0.210589 
     16 H           1.004299   -0.807737   -2.425919 H         1 <1>         0.210589 
@<TRIPOS>BOND
     1    1    2 1    
     2    1    5 2    
     3    1    6 1    
     4    2    3 1    
     5    2   10 1    
     6    2   11 1    
     7    3    4 1    
     8    3    9 1    
     9    3   12 1    
    10    4    7 2    
    11    4    8 1    
    12    6   13 1    
    13    8   14 1    
    14    9   15 1    
    15   10   16 1    
@<TRIPOS>SUBSTRUCTURE
     1 ****        1 TEMP              0 ****  ****    0 ROOT 
@<TRIPOS>NORMAL
@<TRIPOS>FF_PBC
FORCE_FIELD_SETUP_FEATURE Force Field Setup information
v1.0  0 0.000000 0.000000 0.000000 0.000000 0.000000 0.000000 NONE 0 0 0 0 1 0 0 0 0 0 0 0 0
