@<TRIPOS>MOLECULE
MOL002829
   29    29     1     1     0
SMALL
GASTEIGER


@<TRIPOS>ATOM
      1 C          -1.521903    1.684778   -0.564046 C.3       1 <1>         0.081383 
      2 C          -1.892536    0.186042   -0.704446 C.3       1 <1>        -0.020108 
      3 C          -0.940484   -0.716576    0.117050 C.3       1 <1>        -0.043641 
      4 C           0.524858   -0.589404   -0.391519 C.3       1 <1>        -0.020384 
      5 C           0.861669    0.865360   -0.660794 C.2       1 <1>        -0.081931 
      6 C          -0.032321    1.861624   -0.733081 C.2       1 <1>        -0.056784 
      7 C           1.545070   -1.269720    0.585849 C.3       1 <1>        -0.040450 
      8 C           1.082106   -2.688308    1.034957 C.3       1 <1>        -0.062133 
      9 C           2.966443   -1.404576   -0.041118 C.3       1 <1>        -0.062133 
     10 H           0.585236   -1.104059   -1.364784 H         1 <1>         0.034545 
     11 C          -1.954492    2.284096    0.803254 C.3       1 <1>        -0.032445 
     12 O          -2.223149    2.365782   -1.621193 O.3       1 <1>        -0.384819 
     13 H          -2.939643    0.031244   -0.397772 H         1 <1>         0.029609 
     14 H          -1.806944   -0.100101   -1.765847 H         1 <1>         0.029609 
     15 H          -0.995506   -0.448142    1.182221 H         1 <1>         0.027196 
     16 H          -1.293923   -1.755440    0.007681 H         1 <1>         0.027196 
     17 H           1.898259    1.153915   -0.825524 H         1 <1>         0.057270 
     18 H           0.323200    2.875789   -0.923773 H         1 <1>         0.059717 
     19 H           1.625777   -0.642031    1.490352 H         1 <1>         0.030110 
     20 H           1.856336   -3.179075    1.644871 H         1 <1>         0.023251 
     21 H           0.174075   -2.646602    1.654380 H         1 <1>         0.023251 
     22 H           0.885447   -3.318442    0.153965 H         1 <1>         0.023251 
     23 H           3.647627   -1.920965    0.653017 H         1 <1>         0.023251 
     24 H           3.425546   -0.432838   -0.265521 H         1 <1>         0.023251 
     25 H           2.916761   -1.990445   -0.971659 H         1 <1>         0.023251 
     26 H          -3.036365    2.147004    0.950513 H         1 <1>         0.026037 
     27 H          -1.419049    1.815981    1.641154 H         1 <1>         0.026037 
     28 H          -1.737527    3.362953    0.827385 H         1 <1>         0.026037 
     29 H          -2.055863    3.301759   -1.649068 H         1 <1>         0.210579 
@<TRIPOS>BOND
     1    1    2 1    
     2    1    6 1    
     3    1   11 1    
     4    1   12 1    
     5    2    3 1    
     6    2   13 1    
     7    2   14 1    
     8    3    4 1    
     9    3   15 1    
    10    3   16 1    
    11    4    5 1    
    12    4    7 1    
    13    4   10 1    
    14    5    6 2    
    15    5   17 1    
    16    6   18 1    
    17    7    8 1    
    18    7    9 1    
    19    7   19 1    
    20    8   20 1    
    21    8   21 1    
    22    8   22 1    
    23    9   23 1    
    24    9   24 1    
    25    9   25 1    
    26   11   26 1    
    27   11   27 1    
    28   11   28 1    
    29   12   29 1    
@<TRIPOS>SUBSTRUCTURE
     1 ****        1 TEMP              0 ****  ****    0 ROOT 
@<TRIPOS>NORMAL
@<TRIPOS>FF_PBC
FORCE_FIELD_SETUP_FEATURE Force Field Setup information
v1.0  0 0.000000 0.000000 0.000000 0.000000 0.000000 0.000000 NONE 0 0 0 0 1 0 0 0 0 0 0 0 0
