@<TRIPOS>MOLECULE
MOL004902
   81    85     1     1     0
SMALL
GASTEIGER


@<TRIPOS>ATOM
      1 C           3.413767    5.493813    0.761165 C.3       1 <1>         0.049595 
      2 C          -3.841562   -2.245192   -3.093241 C.3       1 <1>         0.060638 
      3 O          -5.248572   -2.428098   -2.836943 O.3       1 <1>        -0.391248 
      4 C          -3.549840   -0.737199   -2.920457 C.3       1 <1>        -0.025820 
      5 C          -3.931705   -0.312753   -1.481909 C.3       1 <1>        -0.044330 
      6 C          -2.915971   -3.107648   -2.167493 C.3       1 <1>        -0.005578 
      7 C          -3.372349   -4.604911   -2.313167 C.3       1 <1>        -0.057190 
      8 C          -1.471888   -3.084532   -2.771109 C.3       1 <1>        -0.057190 
      9 C          -3.061335   -2.615531   -0.660088 C.3       1 <1>        -0.027446 
     10 C          -2.100957   -3.298352    0.374663 C.3       1 <1>        -0.048587 
     11 C          -0.678430   -2.676342    0.458190 C.3       1 <1>        -0.045876 
     12 C          -0.621935   -1.131641    0.709283 C.3       1 <1>        -0.012656 
     13 C          -0.936712   -0.886670    2.232215 C.3       1 <1>        -0.058099 
     14 C           0.821955   -0.513668    0.348113 C.3       1 <1>        -0.004332 
     15 C           1.284687   -0.720176   -1.147098 C.3       1 <1>        -0.055302 
     16 C           1.918113   -1.143761    1.279713 C.3       1 <1>        -0.042869 
     17 C           3.274895   -0.387642    1.340896 C.3       1 <1>        -0.046277 
     18 C           3.110114    1.132326    1.663652 C.3       1 <1>        -0.025464 
     19 C           2.536356    1.322799    3.104034 C.3       1 <1>        -0.059017 
     20 C           4.523703    1.797678    1.577159 C.3       1 <1>        -0.046513 
     21 C           4.498548    3.352365    1.600242 C.3       1 <1>        -0.045008 
     22 C           3.551852    3.955595    0.520305 C.3       1 <1>        -0.008349 
     23 C           4.154757    3.776405   -0.914906 C.3       1 <1>        -0.057455 
     24 C           2.140894    3.294476    0.652350 C.3       1 <1>        -0.038469 
     25 C           2.160100    1.736434    0.587425 C.3       1 <1>        -0.013003 
     26 H           2.615223    1.554921   -0.389301 H         1 <1>         0.035135 
     27 C           0.812184    1.012726    0.497863 C.2       1 <1>        -0.056196 
     28 C          -0.354248    1.674358    0.502057 C.2       1 <1>        -0.018839 
     29 C          -1.660433    1.027108    0.290300 C.2       1 <1>         0.160199 
     30 O          -2.653428    1.714040    0.476339 O.2       1 <1>        -0.292347 
     31 C          -1.733857   -0.420503   -0.145491 C.3       1 <1>         0.033332 
     32 C          -3.171861   -1.073272   -0.329520 C.3       1 <1>        -0.018250 
     33 C          -4.122623   -0.908344    0.923459 C.3       1 <1>        -0.058618 
     34 O           2.860924    5.764275    2.062145 O.3       1 <1>        -0.394470 
     35 H          -1.370468   -0.397672   -1.169087 H         1 <1>         0.039170 
     36 H           4.406101    5.969425    0.684808 H         1 <1>         0.056241 
     37 H           2.758055    5.932921   -0.009618 H         1 <1>         0.056241 
     38 H          -3.670335   -2.486199   -4.158631 H         1 <1>         0.059852 
     39 H          -5.594388   -3.278385   -3.087238 H         1 <1>         0.209800 
     40 H          -4.188572   -0.184208   -3.630574 H         1 <1>         0.029038 
     41 H          -2.512959   -0.482287   -3.175922 H         1 <1>         0.029038 
     42 H          -3.787704    0.774138   -1.403440 H         1 <1>         0.027160 
     43 H          -5.020844   -0.468112   -1.429606 H         1 <1>         0.027160 
     44 H          -2.671240   -5.312923   -1.847947 H         1 <1>         0.023587 
     45 H          -3.439169   -4.878645   -3.378466 H         1 <1>         0.023587 
     46 H          -4.354938   -4.797635   -1.859091 H         1 <1>         0.023587 
     47 H          -1.495728   -3.270832   -3.856175 H         1 <1>         0.023587 
     48 H          -0.845025   -3.887208   -2.359023 H         1 <1>         0.023587 
     49 H          -0.958982   -2.130537   -2.622175 H         1 <1>         0.023587 
     50 H          -4.064287   -3.002477   -0.417422 H         1 <1>         0.031221 
     51 H          -2.516181   -3.265395    1.391516 H         1 <1>         0.026846 
     52 H          -1.998711   -4.370131    0.147322 H         1 <1>         0.026846 
     53 H          -0.112554   -3.213619    1.237083 H         1 <1>         0.027107 
     54 H          -0.184692   -2.940991   -0.466225 H         1 <1>         0.027107 
     55 H          -0.513313   -1.649623    2.900044 H         1 <1>         0.023553 
     56 H          -0.580550    0.090812    2.574481 H         1 <1>         0.023553 
     57 H          -1.998131   -0.886665    2.455192 H         1 <1>         0.023553 
     58 H           1.270576   -1.756952   -1.493174 H         1 <1>         0.023829 
     59 H           0.703043   -0.115847   -1.856816 H         1 <1>         0.023829 
     60 H           2.324050   -0.426072   -1.320162 H         1 <1>         0.023829 
     61 H           2.113045   -2.179164    0.957370 H         1 <1>         0.027392 
     62 H           1.598744   -1.199013    2.325109 H         1 <1>         0.027392 
     63 H           3.811128   -0.526975    0.390358 H         1 <1>         0.027096 
     64 H           3.911128   -0.852880    2.113649 H         1 <1>         0.027096 
     65 H           2.538977    2.367394    3.435696 H         1 <1>         0.023525 
     66 H           3.131291    0.749029    3.830035 H         1 <1>         0.023525 
     67 H           1.499007    0.982391    3.171997 H         1 <1>         0.023525 
     68 H           5.143475    1.444022    2.417797 H         1 <1>         0.027087 
     69 H           5.036641    1.482041    0.657204 H         1 <1>         0.027087 
     70 H           5.521411    3.731136    1.439430 H         1 <1>         0.027140 
     71 H           4.195095    3.699943    2.597939 H         1 <1>         0.027140 
     72 H           4.370602    2.737249   -1.190449 H         1 <1>         0.023578 
     73 H           3.464710    4.182059   -1.669317 H         1 <1>         0.023578 
     74 H           5.104455    4.324981   -0.999373 H         1 <1>         0.023578 
     75 H           1.529293    3.692360   -0.172919 H         1 <1>         0.027710 
     76 H           1.671684    3.600175    1.599455 H         1 <1>         0.027710 
     77 H          -0.420473    2.749576    0.648042 H         1 <1>         0.065218 
     78 H          -4.136669    0.115375    1.314496 H         1 <1>         0.023535 
     79 H          -3.920339   -1.580993    1.760223 H         1 <1>         0.023535 
     80 H          -5.166991   -1.152237    0.675379 H         1 <1>         0.023535 
     81 H           2.769273    6.695033    2.246562 H         1 <1>         0.209419 
@<TRIPOS>BOND
     1   22    1 1    
     2    1   34 1    
     3    1   36 1    
     4    1   37 1    
     5    2    3 1    
     6    2    4 1    
     7    6    2 1    
     8    2   38 1    
     9    3   39 1    
    10    5    4 1    
    11    4   40 1    
    12    4   41 1    
    13   32    5 1    
    14    5   42 1    
    15    5   43 1    
    16    6    7 1    
    17    6    8 1    
    18    9    6 1    
    19    7   44 1    
    20    7   45 1    
    21    7   46 1    
    22    8   47 1    
    23    8   48 1    
    24    8   49 1    
    25   10    9 1    
    26    9   32 1    
    27    9   50 1    
    28   11   10 1    
    29   10   51 1    
    30   10   52 1    
    31   12   11 1    
    32   11   53 1    
    33   11   54 1    
    34   12   13 1    
    35   14   12 1    
    36   12   31 1    
    37   13   55 1    
    38   13   56 1    
    39   13   57 1    
    40   14   15 1    
    41   16   14 1    
    42   14   27 1    
    43   15   58 1    
    44   15   59 1    
    45   15   60 1    
    46   17   16 1    
    47   16   61 1    
    48   16   62 1    
    49   18   17 1    
    50   17   63 1    
    51   17   64 1    
    52   18   19 1    
    53   20   18 1    
    54   18   25 1    
    55   19   65 1    
    56   19   66 1    
    57   19   67 1    
    58   21   20 1    
    59   20   68 1    
    60   20   69 1    
    61   21   22 1    
    62   21   70 1    
    63   21   71 1    
    64   22   23 1    
    65   22   24 1    
    66   23   72 1    
    67   23   73 1    
    68   23   74 1    
    69   24   25 1    
    70   24   75 1    
    71   24   76 1    
    72   25   26 1    
    73   25   27 1    
    74   27   28 2    
    75   28   29 1    
    76   28   77 1    
    77   29   30 2    
    78   29   31 1    
    79   31   32 1    
    80   31   35 1    
    81   32   33 1    
    82   33   78 1    
    83   33   79 1    
    84   33   80 1    
    85   34   81 1    
@<TRIPOS>SUBSTRUCTURE
     1 ****        2 TEMP              0 ****  ****    0 ROOT 
@<TRIPOS>NORMAL
@<TRIPOS>FF_PBC
FORCE_FIELD_SETUP_FEATURE Force Field Setup information
v1.0  0 0.000000 0.000000 0.000000 0.000000 0.000000 0.000000 NONE 0 0 0 0 1 0 0 0 0 0 0 0 0
