@<TRIPOS>MOLECULE
MOL009092
   99   104     1     1     0
SMALL
GASTEIGER


@<TRIPOS>ATOM
      1 O          -5.804768   -0.321197   -0.357298 O.3       1 <1>        -0.339971 
      2 O          -8.745678   -3.328713   -0.278247 O.3       1 <1>        -0.302596 
      3 O          -6.181047   -4.046868   -0.067566 O.3       1 <1>        -0.302711 
      4 O          -9.507480   -0.477547    0.034414 O.3       1 <1>        -0.300278 
      5 O          -7.336662    1.265798   -0.954962 O.3       1 <1>        -0.278289 
      6 O          -3.152734   -0.761025    0.688903 O.3       1 <1>        -0.308753 
      7 O          -9.194796   -5.449907    0.113381 O.2       1 <1>        -0.259212 
      8 O          -4.310113   -4.274121   -1.284909 O.2       1 <1>        -0.259212 
      9 O         -11.625669   -0.982590    0.240221 O.2       1 <1>        -0.259211 
     10 O          -9.277823    2.132154   -1.537730 O.2       1 <1>        -0.259141 
     11 O          -2.777178    0.265133    2.595752 O.2       1 <1>        -0.259223 
     12 O         -10.316403   -2.005792    4.798060 O.3       1 <1>        -0.357199 
     13 O          -7.327927   -5.903516    5.097741 O.3       1 <1>        -0.357199 
     14 O          -9.281609   -6.847669   -3.282697 O.3       1 <1>        -0.357199 
     15 O          -4.993297   -9.264540   -3.063279 O.3       1 <1>        -0.357199 
     16 O          -9.749087   -2.011411   -5.273512 O.3       1 <1>        -0.357199 
     17 O         -11.604003   -5.608207   -2.441006 O.3       1 <1>        -0.357199 
     18 O          -8.780282   -3.872023    6.356702 O.3       1 <1>        -0.355395 
     19 O          -7.668271   -9.155830   -3.909558 O.3       1 <1>        -0.355395 
     20 O         -11.423397    2.797963    3.275606 O.3       1 <1>        -0.357199 
     21 O          -6.780560    4.441177    3.381911 O.3       1 <1>        -0.357199 
     22 O         -10.519558   -4.767913   -4.930556 O.3       1 <1>        -0.355395 
     23 O          -9.288951    4.184518    4.619163 O.3       1 <1>        -0.355395 
     24 O          -6.129412   -2.783746    5.479671 O.3       1 <1>        -0.357199 
     25 O          -2.447785   -5.491539    3.571316 O.3       1 <1>        -0.357199 
     26 O          -4.672111   -5.306285    5.284921 O.3       1 <1>        -0.355395 
     27 C          -7.829308   -2.294416    0.142576 C.3       1 <1>         0.128903 
     28 C          -6.395525   -2.644978   -0.351355 C.3       1 <1>         0.125906 
     29 C          -8.225661   -0.925951   -0.468803 C.3       1 <1>         0.148577 
     30 C          -5.452137   -1.575619    0.269905 C.3       1 <1>         0.114769 
     31 C          -7.148186    0.131247   -0.085665 C.3       1 <1>         0.197745 
     32 C          -3.931510   -1.808228    0.064526 C.3       1 <1>         0.086199 
     33 C          -8.920951   -4.355654    0.575619 C.2       1 <1>         0.294389 
     34 C          -5.423750   -4.670078   -0.986773 C.2       1 <1>         0.294388 
     35 C         -10.600153   -1.135695   -0.400651 C.2       1 <1>         0.294463 
     36 C          -8.444837    1.952991   -0.666077 C.2       1 <1>         0.296291 
     37 C          -8.859363   -4.233783    2.083221 C.ar      1 <1>         0.051505 
     38 C          -5.977361   -5.863251   -1.731567 C.ar      1 <1>         0.051505 
     39 C          -3.129191   -0.757948    2.034146 C.2       1 <1>         0.294052 
     40 C         -10.664287   -2.047915   -1.609505 C.ar      1 <1>         0.051507 
     41 C          -8.670373    2.521746    0.716112 C.ar      1 <1>         0.051575 
     42 C          -3.505345   -1.939207    2.904196 C.ar      1 <1>         0.051495 
     43 C          -8.100356   -5.133796    2.860246 C.ar      1 <1>        -0.016369 
     44 C          -9.628957   -3.154625    2.749979 C.ar      1 <1>        -0.016369 
     45 C          -5.180415   -6.991378   -2.015043 C.ar      1 <1>        -0.016369 
     46 C          -7.386046   -5.827086   -2.191353 C.ar      1 <1>        -0.016369 
     47 C         -11.154446   -3.367582   -1.465755 C.ar      1 <1>        -0.016369 
     48 C         -10.225686   -1.586450   -2.949626 C.ar      1 <1>        -0.016369 
     49 C          -7.603667    3.175768    1.376139 C.ar      1 <1>        -0.016368 
     50 C          -9.987414    2.402916    1.381306 C.ar      1 <1>        -0.016368 
     51 C          -9.604261   -3.021194    4.150821 C.ar      1 <1>         0.105520 
     52 C          -8.077928   -5.002946    4.336140 C.ar      1 <1>         0.105520 
     53 C          -7.945705   -6.899628   -2.882579 C.ar      1 <1>         0.105520 
     54 C          -5.760968   -8.134448   -2.766292 C.ar      1 <1>         0.105520 
     55 C         -10.187269   -2.469988   -4.030844 C.ar      1 <1>         0.105520 
     56 C         -11.132780   -4.305736   -2.611783 C.ar      1 <1>         0.105520 
     57 C          -2.775337   -3.139912    2.840216 C.ar      1 <1>        -0.016369 
     58 C          -4.650419   -1.830212    3.839659 C.ar      1 <1>        -0.016369 
     59 C          -8.809837   -3.976536    4.963714 C.ar      1 <1>         0.132457 
     60 C          -7.114274   -8.089134   -3.194845 C.ar      1 <1>         0.132457 
     61 C         -10.180324    2.936522    2.659262 C.ar      1 <1>         0.105520 
     62 C          -7.811052    3.764049    2.722954 C.ar      1 <1>         0.105520 
     63 C         -10.620044   -3.880174   -3.856804 C.ar      1 <1>         0.132457 
     64 C          -9.071211    3.642305    3.350444 C.ar      1 <1>         0.132457 
     65 C          -5.039453   -2.919988    4.620348 C.ar      1 <1>         0.105520 
     66 C          -3.174657   -4.303285    3.664122 C.ar      1 <1>         0.105520 
     67 C          -4.288972   -4.200948    4.526623 C.ar      1 <1>         0.132457 
     68 H          -7.842446   -2.132774    1.229571 H         1 <1>         0.065725 
     69 H          -6.395769   -2.507007   -1.448268 H         1 <1>         0.065613 
     70 H          -8.190859   -0.980209   -1.564922 H         1 <1>         0.068056 
     71 H          -5.608758   -1.525238    1.355364 H         1 <1>         0.064721 
     72 H          -7.205006    0.382218    0.986879 H         1 <1>         0.094298 
     73 H          -3.728021   -1.748332   -1.015081 H         1 <1>         0.059272 
     74 H          -3.619046   -2.800954    0.414309 H         1 <1>         0.059272 
     75 H          -7.531393   -5.925811    2.385089 H         1 <1>         0.065181 
     76 H         -10.213802   -2.470525    2.145013 H         1 <1>         0.065181 
     77 H          -4.148064   -7.019470   -1.683547 H         1 <1>         0.065181 
     78 H          -7.990880   -4.952519   -2.001763 H         1 <1>         0.065181 
     79 H         -11.527540   -3.712534   -0.507553 H         1 <1>         0.065181 
     80 H          -9.938677   -0.551478   -3.104484 H         1 <1>         0.065181 
     81 H          -6.636980    3.250348    0.891197 H         1 <1>         0.065181 
     82 H         -10.804761    1.893944    0.883240 H         1 <1>         0.065181 
     83 H          -1.915730   -3.225022    2.184911 H         1 <1>         0.065181 
     84 H          -5.195703   -0.895058    3.919945 H         1 <1>         0.065181 
     85 H         -10.854300   -1.468865    4.225976 H         1 <1>         0.217423 
     86 H          -7.651216   -5.940868    5.996057 H         1 <1>         0.217423 
     87 H          -9.846772   -6.761885   -2.518481 H         1 <1>         0.217423 
     88 H          -4.081089   -9.189220   -2.803456 H         1 <1>         0.217423 
     89 H          -9.782283   -2.699778   -5.930729 H         1 <1>         0.217423 
     90 H         -12.133801   -5.884801   -3.183005 H         1 <1>         0.217423 
     91 H          -9.311352   -3.140460    6.656915 H         1 <1>         0.217501 
     92 H          -7.036411   -9.853566   -4.053782 H         1 <1>         0.217501 
     93 H         -11.432133    3.197592    4.140073 H         1 <1>         0.217423 
     94 H          -6.018765    4.605856    2.837241 H         1 <1>         0.217423 
     95 H         -10.135709   -5.598510   -4.659090 H         1 <1>         0.217501 
     96 H          -8.517171    4.641015    4.940811 H         1 <1>         0.217501 
     97 H          -6.192924   -3.498944    6.104573 H         1 <1>         0.217423 
     98 H          -2.763474   -6.150699    4.182515 H         1 <1>         0.217423 
     99 H          -5.505449   -5.647625    4.973580 H         1 <1>         0.217501 
@<TRIPOS>BOND
     1   30    1 1    
     2    1   31 1    
     3   27    2 1    
     4    2   33 1    
     5   28    3 1    
     6    3   34 1    
     7   29    4 1    
     8    4   35 1    
     9   31    5 1    
    10    5   36 1    
    11    6   32 1    
    12   39    6 1    
    13   33    7 2    
    14   34    8 2    
    15   35    9 2    
    16   36   10 2    
    17   39   11 2    
    18   51   12 1    
    19   12   85 1    
    20   52   13 1    
    21   13   86 1    
    22   53   14 1    
    23   14   87 1    
    24   54   15 1    
    25   15   88 1    
    26   55   16 1    
    27   16   89 1    
    28   56   17 1    
    29   17   90 1    
    30   59   18 1    
    31   18   91 1    
    32   60   19 1    
    33   19   92 1    
    34   61   20 1    
    35   20   93 1    
    36   62   21 1    
    37   21   94 1    
    38   63   22 1    
    39   22   95 1    
    40   64   23 1    
    41   23   96 1    
    42   65   24 1    
    43   24   97 1    
    44   66   25 1    
    45   25   98 1    
    46   67   26 1    
    47   26   99 1    
    48   28   27 1    
    49   27   29 1    
    50   27   68 1    
    51   30   28 1    
    52   28   69 1    
    53   31   29 1    
    54   29   70 1    
    55   32   30 1    
    56   30   71 1    
    57   31   72 1    
    58   32   73 1    
    59   32   74 1    
    60   33   37 1    
    61   34   38 1    
    62   35   40 1    
    63   36   41 1    
    64   37   43 2    
    65   37   44 1    
    66   38   45 2    
    67   38   46 1    
    68   42   39 1    
    69   40   47 2    
    70   40   48 1    
    71   41   49 2    
    72   41   50 1    
    73   42   57 2    
    74   58   42 1    
    75   43   52 1    
    76   43   75 1    
    77   44   51 2    
    78   44   76 1    
    79   45   54 1    
    80   45   77 1    
    81   46   53 2    
    82   46   78 1    
    83   47   56 1    
    84   47   79 1    
    85   48   55 2    
    86   48   80 1    
    87   49   62 1    
    88   49   81 1    
    89   50   61 2    
    90   50   82 1    
    91   51   59 1    
    92   52   59 2    
    93   53   60 1    
    94   54   60 2    
    95   55   63 1    
    96   56   63 2    
    97   57   66 1    
    98   57   83 1    
    99   65   58 2    
   100   58   84 1    
   101   61   64 1    
   102   62   64 2    
   103   65   67 1    
   104   66   67 2    
@<TRIPOS>SUBSTRUCTURE
     1 ****        2 TEMP              0 ****  ****    0 ROOT 
@<TRIPOS>NORMAL
@<TRIPOS>FF_PBC
FORCE_FIELD_SETUP_FEATURE Force Field Setup information
v1.0  0 0.000000 0.000000 0.000000 0.000000 0.000000 0.000000 NONE 0 0 0 0 1 0 0 0 0 0 0 0 0
