@<TRIPOS>MOLECULE
MOL002029
   37    38     1     1     0
SMALL
GASTEIGER


@<TRIPOS>ATOM
      1 C           2.341745    0.973330    2.535935 C.ar      1 <1>        -0.050429 
      2 C           1.103086    1.771960    2.396919 C.ar      1 <1>        -0.058563 
      3 C           0.232957    1.571423    1.311369 C.ar      1 <1>        -0.057783 
      4 C           0.511932    0.541173    0.271334 C.ar      1 <1>        -0.040932 
      5 C           1.726912   -0.187005    0.406515 C.ar      1 <1>        -0.057783 
      6 C           2.641191    0.021681    1.554103 C.ar      1 <1>        -0.058563 
      7 C          -0.442515    0.262707   -0.924922 C.3       1 <1>        -0.001913 
      8 C          -1.054060   -1.189029   -0.968605 C.3       1 <1>        -0.025510 
      9 C          -2.295461   -1.037176   -1.903768 C.3       1 <1>        -0.047047 
     10 C          -2.731363    0.451584   -1.854777 C.3       1 <1>        -0.051736 
     11 C          -1.742530    1.123687   -0.873188 C.3       1 <1>        -0.043106 
     12 C          -1.515937   -1.657221    0.450574 C.3       1 <1>        -0.059013 
     13 C          -0.145140   -2.326048   -1.536399 C.3       1 <1>        -0.059013 
     14 C           0.328273    0.652138   -2.225669 C.3       1 <1>        -0.055045 
     15 C           3.262016    1.206950    3.738228 C.3       1 <1>        -0.039709 
     16 H           0.869745    2.525269    3.142674 H         1 <1>         0.062029 
     17 H          -0.640942    2.206952    1.262116 H         1 <1>         0.062055 
     18 H           2.021872   -0.917760   -0.331448 H         1 <1>         0.062055 
     19 H           3.545133   -0.573875    1.627302 H         1 <1>         0.062029 
     20 H          -2.035033   -1.293202   -2.944599 H         1 <1>         0.027070 
     21 H          -3.114561   -1.710683   -1.602969 H         1 <1>         0.027070 
     22 H          -3.778401    0.567793   -1.525569 H         1 <1>         0.026572 
     23 H          -2.645693    0.918756   -2.850794 H         1 <1>         0.026572 
     24 H          -1.573935    2.184836   -1.119532 H         1 <1>         0.027384 
     25 H          -2.219811    1.088030    0.115801 H         1 <1>         0.027384 
     26 H          -1.921724   -2.679593    0.401835 H         1 <1>         0.023525 
     27 H          -0.664729   -1.671904    1.147605 H         1 <1>         0.023525 
     28 H          -2.302452   -1.027948    0.885973 H         1 <1>         0.023525 
     29 H          -0.758703   -3.221845   -1.720918 H         1 <1>         0.023525 
     30 H           0.638884   -2.626956   -0.830021 H         1 <1>         0.023525 
     31 H           0.320963   -2.054847   -2.493497 H         1 <1>         0.023525 
     32 H           0.587197    1.721666   -2.191480 H         1 <1>         0.023838 
     33 H           1.271446    0.100095   -2.332759 H         1 <1>         0.023838 
     34 H          -0.263857    0.476055   -3.134204 H         1 <1>         0.023838 
     35 H           4.232022    0.702270    3.615097 H         1 <1>         0.027753 
     36 H           2.770703    0.820694    4.643591 H         1 <1>         0.027753 
     37 H           3.440868    2.285946    3.858147 H         1 <1>         0.027753 
@<TRIPOS>BOND
     1    1    2 1    
     2    1    6 2    
     3    1   15 1    
     4    2    3 2    
     5    2   16 1    
     6    3    4 1    
     7    3   17 1    
     8    4    5 2    
     9    4    7 1    
    10    5    6 1    
    11    5   18 1    
    12    6   19 1    
    13    7    8 1    
    14    7   11 1    
    15    7   14 1    
    16    8    9 1    
    17    8   12 1    
    18    8   13 1    
    19    9   10 1    
    20    9   20 1    
    21    9   21 1    
    22   10   11 1    
    23   10   22 1    
    24   10   23 1    
    25   11   24 1    
    26   11   25 1    
    27   12   26 1    
    28   12   27 1    
    29   12   28 1    
    30   13   29 1    
    31   13   30 1    
    32   13   31 1    
    33   14   32 1    
    34   14   33 1    
    35   14   34 1    
    36   15   35 1    
    37   15   36 1    
    38   15   37 1    
@<TRIPOS>SUBSTRUCTURE
     1 ****        1 TEMP              0 ****  ****    0 ROOT 
@<TRIPOS>NORMAL
@<TRIPOS>FF_PBC
FORCE_FIELD_SETUP_FEATURE Force Field Setup information
v1.0  0 0.000000 0.000000 0.000000 0.000000 0.000000 0.000000 NONE 0 0 0 0 1 0 0 0 0 0 0 0 0
