@<TRIPOS>MOLECULE
MOL006119
   42    41     1     1     0
SMALL
GASTEIGER


@<TRIPOS>ATOM
      1 C          -2.962724   -5.633001    0.037921 C.2       1 <1>        -0.079693 
      2 C          -1.720608   -4.767165   -0.102518 C.3       1 <1>        -0.032257 
      3 C          -1.898910   -3.230831    0.074170 C.3       1 <1>        -0.049381 
      4 C          -0.537131   -2.478250   -0.030285 C.3       1 <1>        -0.052771 
      5 C          -0.727176   -0.935181    0.030503 C.3       1 <1>        -0.053048 
      6 C           0.623669   -0.164371   -0.025625 C.3       1 <1>        -0.053057 
      7 C           0.394897    1.373803   -0.005682 C.3       1 <1>        -0.053057 
      8 C           1.734006    2.166034   -0.019536 C.3       1 <1>        -0.053057 
      9 C           1.469461    3.697942   -0.006185 C.3       1 <1>        -0.053065 
     10 C           2.784714    4.524605   -0.004381 C.3       1 <1>        -0.053306 
     11 C           2.466144    6.044045    0.001658 C.3       1 <1>        -0.055911 
     12 C           3.752035    6.908178    0.003144 C.3       1 <1>        -0.065276 
     13 C          -2.851517   -6.940101    0.322645 C.2       1 <1>        -0.099710 
     14 C          -4.317182   -4.988958   -0.168353 C.3       1 <1>        -0.044040 
     15 H          -0.976987   -5.105206    0.639708 H         1 <1>         0.030981 
     16 H          -1.305961   -4.955396   -1.106451 H         1 <1>         0.030981 
     17 H          -2.569395   -2.843984   -0.707177 H         1 <1>         0.026830 
     18 H          -2.359124   -3.027978    1.055641 H         1 <1>         0.026830 
     19 H           0.122581   -2.802189    0.791212 H         1 <1>         0.026538 
     20 H          -0.043386   -2.741608   -0.979845 H         1 <1>         0.026538 
     21 H          -1.355372   -0.620451   -0.818928 H         1 <1>         0.026529 
     22 H          -1.255278   -0.672142    0.961279 H         1 <1>         0.026529 
     23 H           1.245293   -0.452052    0.838463 H         1 <1>         0.026528 
     24 H           1.168570   -0.435678   -0.944684 H         1 <1>         0.026528 
     25 H          -0.204881    1.665685   -0.883630 H         1 <1>         0.026528 
     26 H          -0.172961    1.643923    0.899880 H         1 <1>         0.026528 
     27 H           2.333515    1.891864    0.865400 H         1 <1>         0.026528 
     28 H           2.310764    1.902889   -0.922445 H         1 <1>         0.026528 
     29 H           0.876076    3.968708   -0.895677 H         1 <1>         0.026528 
     30 H           0.883532    3.956171    0.891625 H         1 <1>         0.026528 
     31 H           3.380165    4.269107    0.886841 H         1 <1>         0.026520 
     32 H           3.378536    4.275360   -0.899563 H         1 <1>         0.026520 
     33 H           1.869101    6.296759   -0.890261 H         1 <1>         0.026265 
     34 H           1.871028    6.290259    0.895299 H         1 <1>         0.026265 
     35 H           3.484235    7.977397    0.005378 H         1 <1>         0.022978 
     36 H           4.356866    6.697249    0.897281 H         1 <1>         0.022978 
     37 H           4.356489    6.701191   -0.892820 H         1 <1>         0.022978 
     38 H          -3.724459   -7.584963    0.421818 H         1 <1>         0.053432 
     39 H          -1.876249   -7.405452    0.459458 H         1 <1>         0.053432 
     40 H          -4.515105   -4.239668    0.613206 H         1 <1>         0.027427 
     41 H          -4.350304   -4.503114   -1.153360 H         1 <1>         0.027427 
     42 H          -5.136968   -5.723027   -0.135128 H         1 <1>         0.027427 
@<TRIPOS>BOND
     1    1    2 1    
     2    1   13 2    
     3    1   14 1    
     4    2    3 1    
     5    2   15 1    
     6    2   16 1    
     7    3    4 1    
     8    3   17 1    
     9    3   18 1    
    10    4    5 1    
    11    4   19 1    
    12    4   20 1    
    13    5    6 1    
    14    5   21 1    
    15    5   22 1    
    16    6    7 1    
    17    6   23 1    
    18    6   24 1    
    19    7    8 1    
    20    7   25 1    
    21    7   26 1    
    22    8    9 1    
    23    8   27 1    
    24    8   28 1    
    25    9   10 1    
    26    9   29 1    
    27    9   30 1    
    28   10   11 1    
    29   10   31 1    
    30   10   32 1    
    31   11   12 1    
    32   11   33 1    
    33   11   34 1    
    34   12   35 1    
    35   12   36 1    
    36   12   37 1    
    37   13   38 1    
    38   13   39 1    
    39   14   40 1    
    40   14   41 1    
    41   14   42 1    
@<TRIPOS>SUBSTRUCTURE
     1 ****        1 TEMP              0 ****  ****    0 ROOT 
@<TRIPOS>NORMAL
@<TRIPOS>FF_PBC
FORCE_FIELD_SETUP_FEATURE Force Field Setup information
v1.0  0 0.000000 0.000000 0.000000 0.000000 0.000000 0.000000 NONE 0 0 0 0 1 0 0 0 0 0 0 0 0
