@<TRIPOS>MOLECULE
MOL001110
   26    25     1     1     0
SMALL
GASTEIGER


@<TRIPOS>ATOM
      1 C          -0.254322    1.575416    1.177142 C.2       1 <1>        -0.077370 
      2 C           0.220615    1.555121   -0.258082 C.3       1 <1>        -0.015773 
      3 C          -0.478809    0.467032   -1.040011 C.2       1 <1>        -0.081539 
      4 C           0.401561   -0.767640    1.589875 C.2       1 <1>        -0.066231 
      5 C          -0.183386    0.527388    2.014656 C.2       1 <1>        -0.054618 
      6 C          -0.701219    0.665822    3.430398 C.3       1 <1>        -0.040013 
      7 C           0.118163   -1.946346    2.159278 C.2       1 <1>        -0.098453 
      8 C           0.015248   -0.133713   -2.135236 C.2       1 <1>        -0.079326 
      9 C          -0.738072   -1.250210   -2.825467 C.3       1 <1>        -0.044040 
     10 C           1.339947    0.240006   -2.764780 C.3       1 <1>        -0.044040 
     11 H          -0.684743    2.514002    1.530616 H         1 <1>         0.057771 
     12 H           1.314608    1.439593   -0.244512 H         1 <1>         0.034987 
     13 H          -0.018046    2.514526   -0.743757 H         1 <1>         0.034987 
     14 H          -1.458142    0.163704   -0.666332 H         1 <1>         0.057453 
     15 H           1.110777   -0.787544    0.762065 H         1 <1>         0.061432 
     16 H          -0.046828    0.123041    4.128858 H         1 <1>         0.027744 
     17 H          -0.740164    1.713589    3.766296 H         1 <1>         0.027744 
     18 H          -1.715934    0.244620    3.488789 H         1 <1>         0.027744 
     19 H           0.588559   -2.862722    1.800717 H         1 <1>         0.053489 
     20 H          -0.584333   -2.039785    2.985599 H         1 <1>         0.053489 
     21 H          -1.039378   -0.922903   -3.831922 H         1 <1>         0.027427 
     22 H          -0.081090   -2.127933   -2.920732 H         1 <1>         0.027427 
     23 H          -1.642865   -1.560695   -2.281390 H         1 <1>         0.027427 
     24 H           1.289095    0.124161   -3.858163 H         1 <1>         0.027427 
     25 H           2.123369   -0.429084   -2.378568 H         1 <1>         0.027427 
     26 H           1.628698    1.282108   -2.566441 H         1 <1>         0.027427 
@<TRIPOS>BOND
     1    1    2 1    
     2    1    5 2    
     3    1   11 1    
     4    2    3 1    
     5    2   12 1    
     6    2   13 1    
     7    3    8 2    
     8    3   14 1    
     9    5    4 1    
    10    4    7 2    
    11    4   15 1    
    12    5    6 1    
    13    6   16 1    
    14    6   17 1    
    15    6   18 1    
    16    7   19 1    
    17    7   20 1    
    18    8    9 1    
    19    8   10 1    
    20    9   21 1    
    21    9   22 1    
    22    9   23 1    
    23   10   24 1    
    24   10   25 1    
    25   10   26 1    
@<TRIPOS>SUBSTRUCTURE
     1 ****        1 TEMP              0 ****  ****    0 ROOT 
@<TRIPOS>NORMAL
@<TRIPOS>FF_PBC
FORCE_FIELD_SETUP_FEATURE Force Field Setup information
v1.0  0 0.000000 0.000000 0.000000 0.000000 0.000000 0.000000 NONE 0 0 0 0 1 0 0 0 0 0 0 0 0
