@<TRIPOS>MOLECULE
MOL004638
  140   147     1     1     0
SMALL
GASTEIGER


@<TRIPOS>ATOM
      1 C          -4.356839   -0.372552    1.698878 C.3       1 <1>        -0.025376 
      2 C          -3.527482   -1.532378    2.309068 C.3       1 <1>         0.069511 
      3 C          -3.279824   -2.686955    1.277798 C.3       1 <1>         0.020641 
      4 C          -2.697378   -2.131426   -0.089727 C.3       1 <1>        -0.025206 
      5 C          -3.486868   -0.916011   -0.725566 C.3       1 <1>        -0.021728 
      6 C          -3.731062    0.157740    0.377445 C.3       1 <1>        -0.044437 
      7 C          -1.167973   -1.839977    0.012178 C.3       1 <1>        -0.048508 
      8 C          -0.520308   -1.375278   -1.322667 C.3       1 <1>        -0.045983 
      9 C          -1.141887   -0.066294   -1.884920 C.3       1 <1>        -0.015850 
     10 C          -2.688322   -0.313473   -1.957700 C.3       1 <1>        -0.010741 
     11 C          -0.596817    0.264555   -3.348382 C.3       1 <1>         0.001211 
     12 C          -1.104484    1.667820   -3.632271 C.2       1 <1>        -0.041177 
     13 C          -2.569376    1.782693   -3.376071 C.2       1 <1>        -0.061680 
     14 C          -3.278451    0.922721   -2.622973 C.2       1 <1>        -0.079573 
     15 C           0.965436    0.154689   -3.410617 C.3       1 <1>        -0.016023 
     16 C           1.549343    1.000577   -4.563222 C.3       1 <1>         0.067441 
     17 C           1.175590    2.510894   -4.404709 C.3       1 <1>         0.041279 
     18 C          -0.306385    2.681345   -4.045647 C.2       1 <1>        -0.054572 
     19 C           1.478870    3.182890   -5.787815 C.3       1 <1>        -0.038670 
     20 C           0.893040    4.609299   -5.962471 C.3       1 <1>        -0.046636 
     21 C          -0.622770    4.664634   -5.612481 C.3       1 <1>        -0.031141 
     22 C          -0.806004    4.116184   -4.172025 C.3       1 <1>        -0.025318 
     23 O          -2.265095   -1.075709    2.884492 O.3       1 <1>        -0.344807 
     24 C          -2.305084   -3.710454    1.961314 C.3       1 <1>        -0.054821 
     25 C          -4.881529   -1.391304   -1.300241 C.3       1 <1>        -0.058735 
     26 C          -0.802338    1.148879   -0.939005 C.3       1 <1>        -0.058207 
     27 C           2.063235    3.177379   -3.296710 C.3       1 <1>         0.055890 
     28 O           2.955736    0.756003   -4.730798 O.3       1 <1>        -0.390817 
     29 C          -1.487895    3.823584   -6.599459 C.3       1 <1>        -0.059522 
     30 C          -4.594619   -3.520089    1.060995 C.3       1 <1>         0.052209 
     31 C          -1.186762   -0.628388   -4.504585 C.3       1 <1>        -0.054936 
     32 C          -1.096146    6.148661   -5.681966 C.3       1 <1>        -0.059522 
     33 O           3.454864    2.822021   -3.432197 O.3       1 <1>        -0.394059 
     34 O          -4.378275   -4.540481    0.066595 O.3       1 <1>        -0.394374 
     35 C          -2.299102   -0.704333    4.289104 C.3       1 <1>         0.188127 
     36 O          -2.923111    0.562961    4.588727 O.3       1 <1>        -0.343072 
     37 C          -2.088226    1.725004    4.385531 C.3       1 <1>         0.087317 
     38 C          -0.751668    1.583141    5.166706 C.3       1 <1>         0.109842 
     39 C           0.038429    0.320956    4.722641 C.3       1 <1>         0.120486 
     40 C          -0.903381   -0.890885    4.963124 C.3       1 <1>         0.134483 
     41 C           1.517252   -0.589076    2.991111 C.3       1 <1>         0.188803 
     42 O           2.492192   -0.806392    4.032356 O.3       1 <1>        -0.340510 
     43 C           3.631403    0.091392    3.989019 C.3       1 <1>         0.113005 
     44 C           3.320692    1.453809    3.305721 C.3       1 <1>         0.111906 
     45 C           2.767192    1.232941    1.861314 C.3       1 <1>         0.114429 
     46 C           2.241450   -0.214252    1.671934 C.3       1 <1>         0.140628 
     47 C           3.142121   -2.442707    1.243167 C.3       1 <1>         0.188134 
     48 O           2.114720   -2.657241    0.258016 O.3       1 <1>        -0.346058 
     49 C           1.873593   -4.055099   -0.002481 C.3       1 <1>         0.079193 
     50 C           3.154652   -4.770595   -0.502243 C.3       1 <1>         0.106933 
     51 C           4.287474   -4.580167    0.539528 C.3       1 <1>         0.113709 
     52 C           4.483245   -3.064590    0.774134 C.3       1 <1>         0.134103 
     53 C          -1.918645    2.094067    2.892604 C.3       1 <1>        -0.036060 
     54 O           0.054694    2.775953    5.164747 O.3       1 <1>        -0.386569 
     55 O           0.604102    0.467661    3.388788 O.3       1 <1>        -0.340043 
     56 C           4.142636    0.255898    5.443807 C.3       1 <1>         0.073015 
     57 O           1.746273    2.195113    1.533701 O.3       1 <1>        -0.386391 
     58 O           3.952088   -5.197542    1.799039 O.3       1 <1>        -0.386412 
     59 O           4.923897   -2.446889   -0.453667 O.3       1 <1>        -0.384104 
     60 O           3.542409   -4.277463   -1.797178 O.3       1 <1>        -0.386859 
     61 O           3.394020   -1.032037    1.360315 O.3       1 <1>        -0.337771 
     62 O           4.496567    2.286361    3.267933 O.3       1 <1>        -0.386488 
     63 O          -1.018617   -1.026203    6.400879 O.3       1 <1>        -0.384094 
     64 O           5.420361    0.919547    5.464643 O.3       1 <1>        -0.392366 
     65 H          -5.398187   -0.683494    1.541725 H         1 <1>         0.029048 
     66 H          -4.407274    0.435069    2.443891 H         1 <1>         0.029048 
     67 H          -4.159687   -1.987335    3.089856 H         1 <1>         0.060308 
     68 H          -2.727375   -2.956430   -0.819581 H         1 <1>         0.031301 
     69 H          -4.350503    0.979674   -0.013964 H         1 <1>         0.027158 
     70 H          -2.771134    0.574791    0.659442 H         1 <1>         0.027158 
     71 H          -0.966891   -1.156206    0.842135 H         1 <1>         0.026847 
     72 H          -0.626776   -2.767956    0.242417 H         1 <1>         0.026847 
     73 H           0.556097   -1.235269   -1.155046 H         1 <1>         0.027105 
     74 H          -0.631680   -2.191193   -2.052721 H         1 <1>         0.027105 
     75 H          -2.813191   -1.154318   -2.651360 H         1 <1>         0.035395 
     76 H          -3.161654    2.581126   -3.817747 H         1 <1>         0.061744 
     77 H          -4.338980    1.148719   -2.508225 H         1 <1>         0.057525 
     78 H           1.256709   -0.896625   -3.566251 H         1 <1>         0.029895 
     79 H           1.481562    0.481993   -2.501010 H         1 <1>         0.029895 
     80 H           1.162514    0.611727   -5.511153 H         1 <1>         0.060283 
     81 H           2.570403    3.217146   -5.940671 H         1 <1>         0.027536 
     82 H           1.065596    2.586989   -6.615452 H         1 <1>         0.027536 
     83 H           1.042384    4.939171   -7.004269 H         1 <1>         0.027081 
     84 H           1.448315    5.315769   -5.327385 H         1 <1>         0.027081 
     85 H          -1.845138    4.284918   -3.876922 H         1 <1>         0.031555 
     86 H          -0.234617    4.741238   -3.473058 H         1 <1>         0.031555 
     87 H          -2.054825   -4.524077    1.262897 H         1 <1>         0.023667 
     88 H          -2.758251   -4.164802    2.855641 H         1 <1>         0.023667 
     89 H          -1.368824   -3.256761    2.315668 H         1 <1>         0.023667 
     90 H          -5.160764   -0.915462   -2.248211 H         1 <1>         0.023534 
     91 H          -5.730206   -1.175179   -0.642719 H         1 <1>         0.023534 
     92 H          -4.882070   -2.466038   -1.530602 H         1 <1>         0.023534 
     93 H           0.100080    1.680255   -1.238049 H         1 <1>         0.023552 
     94 H          -1.596066    1.908982   -0.930462 H         1 <1>         0.023552 
     95 H          -0.600832    0.876629    0.097552 H         1 <1>         0.023552 
     96 H           1.728927    2.869194   -2.298199 H         1 <1>         0.056653 
     97 H           2.001666    4.273899   -3.330679 H         1 <1>         0.056653 
     98 H           3.470445    1.114001   -4.013376 H         1 <1>         0.209815 
     99 H          -1.311541    4.149397   -7.635761 H         1 <1>         0.023508 
    100 H          -1.273611    2.747416   -6.533376 H         1 <1>         0.023508 
    101 H          -2.557177    3.956298   -6.374487 H         1 <1>         0.023508 
    102 H          -4.902520   -4.018104    1.996442 H         1 <1>         0.056334 
    103 H          -5.449622   -2.900813    0.777220 H         1 <1>         0.056334 
    104 H          -2.262055   -0.482600   -4.678517 H         1 <1>         0.023839 
    105 H          -1.010317   -1.695707   -4.312062 H         1 <1>         0.023839 
    106 H          -0.750998   -0.411052   -5.484349 H         1 <1>         0.023839 
    107 H          -0.952082    6.549495   -6.697093 H         1 <1>         0.023508 
    108 H          -0.527880    6.777520   -4.979360 H         1 <1>         0.023508 
    109 H          -2.163683    6.234860   -5.427403 H         1 <1>         0.023508 
    110 H           4.018650    3.230726   -2.779102 H         1 <1>         0.209434 
    111 H          -5.142457   -5.085410   -0.099023 H         1 <1>         0.209420 
    112 H          -2.916803   -1.440285    4.825788 H         1 <1>         0.093748 
    113 H          -2.640391    2.564730    4.841624 H         1 <1>         0.062075 
    114 H          -1.033604    1.458917    6.226992 H         1 <1>         0.064594 
    115 H           0.875717    0.246632    5.435889 H         1 <1>         0.065136 
    116 H          -0.444181   -1.820023    4.592280 H         1 <1>         0.067105 
    117 H           0.953306   -1.516599    2.815427 H         1 <1>         0.093763 
    118 H           4.447835   -0.386316    3.424712 H         1 <1>         0.064668 
    119 H           2.563399    1.945168    3.934960 H         1 <1>         0.064673 
    120 H           3.580840    1.388972    1.133784 H         1 <1>         0.064768 
    121 H           1.543297   -0.223950    0.822877 H         1 <1>         0.067477 
    122 H           2.865468   -2.872159    2.220865 H         1 <1>         0.093743 
    123 H           1.113740   -4.132318   -0.795180 H         1 <1>         0.058735 
    124 H           1.480381   -4.546558    0.902540 H         1 <1>         0.058735 
    125 H           2.948708   -5.846621   -0.626931 H         1 <1>         0.064300 
    126 H           5.228562   -4.998719    0.141308 H         1 <1>         0.064747 
    127 H           5.246340   -2.919046    1.558908 H         1 <1>         0.067095 
    128 H          -1.346423    3.022856    2.760731 H         1 <1>         0.025536 
    129 H          -2.904192    2.259041    2.436198 H         1 <1>         0.025536 
    130 H          -1.407084    1.283073    2.367866 H         1 <1>         0.025536 
    131 H           0.401469    2.991823    4.308532 H         1 <1>         0.210002 
    132 H           3.397413    0.821378    6.027029 H         1 <1>         0.058370 
    133 H           4.244926   -0.747982    5.890561 H         1 <1>         0.058370 
    134 H           0.966233    2.064497    2.063273 H         1 <1>         0.210005 
    135 H           3.855407   -6.143438    1.739647 H         1 <1>         0.210005 
    136 H           5.007627   -1.501969   -0.353189 H         1 <1>         0.210110 
    137 H           3.763968   -3.349305   -1.767353 H         1 <1>         0.209989 
    138 H           4.327643    3.149501    2.902174 H         1 <1>         0.210004 
    139 H          -1.510463   -1.786799    6.696240 H         1 <1>         0.210111 
    140 H           5.767225    1.044389    6.342950 H         1 <1>         0.209508 
@<TRIPOS>BOND
     1    2    1 1    
     2    1    6 1    
     3    1   65 1    
     4    1   66 1    
     5    2    3 1    
     6   23    2 1    
     7    2   67 1    
     8    3    4 1    
     9    3   24 1    
    10    3   30 1    
    11    4    5 1    
    12    4    7 1    
    13    4   68 1    
    14    6    5 1    
    15    5   10 1    
    16    5   25 1    
    17    6   69 1    
    18    6   70 1    
    19    7    8 1    
    20    7   71 1    
    21    7   72 1    
    22    8    9 1    
    23    8   73 1    
    24    8   74 1    
    25   10    9 1    
    26    9   11 1    
    27    9   26 1    
    28   10   14 1    
    29   10   75 1    
    30   11   12 1    
    31   11   15 1    
    32   11   31 1    
    33   13   12 1    
    34   12   18 2    
    35   14   13 2    
    36   13   76 1    
    37   14   77 1    
    38   15   16 1    
    39   15   78 1    
    40   15   79 1    
    41   16   17 1    
    42   16   28 1    
    43   16   80 1    
    44   18   17 1    
    45   17   19 1    
    46   17   27 1    
    47   18   22 1    
    48   19   20 1    
    49   19   81 1    
    50   19   82 1    
    51   21   20 1    
    52   20   83 1    
    53   20   84 1    
    54   22   21 1    
    55   21   29 1    
    56   21   32 1    
    57   22   85 1    
    58   22   86 1    
    59   35   23 1    
    60   24   87 1    
    61   24   88 1    
    62   24   89 1    
    63   25   90 1    
    64   25   91 1    
    65   25   92 1    
    66   26   93 1    
    67   26   94 1    
    68   26   95 1    
    69   27   33 1    
    70   27   96 1    
    71   27   97 1    
    72   28   98 1    
    73   29   99 1    
    74   29  100 1    
    75   29  101 1    
    76   30   34 1    
    77   30  102 1    
    78   30  103 1    
    79   31  104 1    
    80   31  105 1    
    81   31  106 1    
    82   32  107 1    
    83   32  108 1    
    84   32  109 1    
    85   33  110 1    
    86   34  111 1    
    87   35   36 1    
    88   40   35 1    
    89   35  112 1    
    90   37   36 1    
    91   38   37 1    
    92   37   53 1    
    93   37  113 1    
    94   39   38 1    
    95   38   54 1    
    96   38  114 1    
    97   39   40 1    
    98   55   39 1    
    99   39  115 1    
   100   40   63 1    
   101   40  116 1    
   102   41   42 1    
   103   46   41 1    
   104   41   55 1    
   105   41  117 1    
   106   42   43 1    
   107   44   43 1    
   108   43   56 1    
   109   43  118 1    
   110   45   44 1    
   111   44   62 1    
   112   44  119 1    
   113   46   45 1    
   114   45   57 1    
   115   45  120 1    
   116   61   46 1    
   117   46  121 1    
   118   47   48 1    
   119   47   52 1    
   120   47   61 1    
   121   47  122 1    
   122   48   49 1    
   123   49   50 1    
   124   49  123 1    
   125   49  124 1    
   126   50   51 1    
   127   50   60 1    
   128   50  125 1    
   129   51   52 1    
   130   51   58 1    
   131   51  126 1    
   132   52   59 1    
   133   52  127 1    
   134   53  128 1    
   135   53  129 1    
   136   53  130 1    
   137   54  131 1    
   138   56   64 1    
   139   56  132 1    
   140   56  133 1    
   141   57  134 1    
   142   58  135 1    
   143   59  136 1    
   144   60  137 1    
   145   62  138 1    
   146   63  139 1    
   147   64  140 1    
@<TRIPOS>SUBSTRUCTURE
     1 ****       47 TEMP              0 ****  ****    0 ROOT 
@<TRIPOS>NORMAL
@<TRIPOS>FF_PBC
FORCE_FIELD_SETUP_FEATURE Force Field Setup information
v1.0  0 0.000000 0.000000 0.000000 0.000000 0.000000 0.000000 NONE 0 0 0 0 1 0 0 0 0 0 0 0 0
