@<TRIPOS>MOLECULE
MOL003536
   42    43     1     1     0
SMALL
GASTEIGER


@<TRIPOS>ATOM
      1 C           1.166425   -2.021086    0.235201 C.3       1 <1>         0.066683 
      2 C           2.198757   -1.105672    0.941194 C.3       1 <1>        -0.023706 
      3 C           2.301083    0.249633    0.206907 C.3       1 <1>        -0.046837 
      4 C           0.960226    1.044909    0.121825 C.3       1 <1>        -0.032002 
      5 C          -0.245600    0.109171   -0.251932 C.3       1 <1>        -0.014167 
      6 C          -1.584134    0.696021    0.170746 C.2       1 <1>        -0.081307 
      7 C          -2.709143   -0.014527    0.344210 C.2       1 <1>        -0.076238 
      8 C          -2.752255   -1.514084    0.186608 C.3       1 <1>        -0.031637 
      9 C          -1.397818   -2.127180   -0.250381 C.3       1 <1>        -0.043385 
     10 C          -0.221150   -1.321943    0.376972 C.3       1 <1>        -0.005587 
     11 O           1.564720   -2.147199   -1.141351 O.3       1 <1>        -0.388553 
     12 C           1.180658    2.234810   -0.896523 C.3       1 <1>        -0.043343 
     13 C          -0.067111    3.111993   -1.206920 C.3       1 <1>        -0.062396 
     14 C           2.333027    3.189225   -0.453282 C.3       1 <1>        -0.062396 
     15 C          -4.021949    0.631865    0.735718 C.3       1 <1>        -0.043778 
     16 C           1.221132   -3.425939    0.909336 C.3       1 <1>        -0.035799 
     17 H           3.193106   -1.582906    0.919531 H         1 <1>         0.029291 
     18 H           1.925052   -0.943613    1.996759 H         1 <1>         0.029291 
     19 H           3.057013    0.832157    0.757934 H         1 <1>         0.026908 
     20 H           2.691374    0.055774   -0.805364 H         1 <1>         0.026908 
     21 H           0.755562    1.447675    1.127887 H         1 <1>         0.030901 
     22 H          -0.221340    0.005671   -1.348236 H         1 <1>         0.034935 
     23 H          -1.669138    1.758789    0.369111 H         1 <1>         0.057450 
     24 H          -3.545051   -1.806792   -0.521113 H         1 <1>         0.031000 
     25 H          -3.016577   -1.916041    1.178896 H         1 <1>         0.031000 
     26 H          -1.328500   -2.101129   -1.349568 H         1 <1>         0.027203 
     27 H          -1.405309   -3.183343    0.055081 H         1 <1>         0.027203 
     28 H          -0.419838   -1.233781    1.459165 H         1 <1>         0.033419 
     29 H           0.998275   -2.716577   -1.648968 H         1 <1>         0.210159 
     30 H           1.472918    1.804296   -1.870898 H         1 <1>         0.029832 
     31 H          -0.874471    2.520470   -1.662913 H         1 <1>         0.023242 
     32 H           0.181704    3.898290   -1.937046 H         1 <1>         0.023242 
     33 H          -0.424109    3.610074   -0.293035 H         1 <1>         0.023242 
     34 H           3.319446    2.707742   -0.513232 H         1 <1>         0.023242 
     35 H           2.389872    4.077373   -1.101338 H         1 <1>         0.023242 
     36 H           2.163161    3.530503    0.579211 H         1 <1>         0.023242 
     37 H          -3.957014    1.725638    0.836961 H         1 <1>         0.027436 
     38 H          -4.781045    0.407732   -0.028657 H         1 <1>         0.027436 
     39 H          -4.360313    0.220825    1.698692 H         1 <1>         0.027436 
     40 H           0.625522   -4.171903    0.365819 H         1 <1>         0.025730 
     41 H           0.860827   -3.372626    1.947836 H         1 <1>         0.025730 
     42 H           2.256051   -3.800092    0.920077 H         1 <1>         0.025730 
@<TRIPOS>BOND
     1    1    2 1    
     2    1   10 1    
     3    1   11 1    
     4    1   16 1    
     5    2    3 1    
     6    2   17 1    
     7    2   18 1    
     8    3    4 1    
     9    3   19 1    
    10    3   20 1    
    11    4    5 1    
    12    4   12 1    
    13    4   21 1    
    14    5    6 1    
    15    5   10 1    
    16    5   22 1    
    17    6    7 2    
    18    6   23 1    
    19    7    8 1    
    20    7   15 1    
    21    8    9 1    
    22    8   24 1    
    23    8   25 1    
    24    9   10 1    
    25    9   26 1    
    26    9   27 1    
    27   10   28 1    
    28   11   29 1    
    29   12   13 1    
    30   12   14 1    
    31   12   30 1    
    32   13   31 1    
    33   13   32 1    
    34   13   33 1    
    35   14   34 1    
    36   14   35 1    
    37   14   36 1    
    38   15   37 1    
    39   15   38 1    
    40   15   39 1    
    41   16   40 1    
    42   16   41 1    
    43   16   42 1    
@<TRIPOS>SUBSTRUCTURE
     1 ****        1 TEMP              0 ****  ****    0 ROOT 
@<TRIPOS>NORMAL
@<TRIPOS>FF_PBC
FORCE_FIELD_SETUP_FEATURE Force Field Setup information
v1.0  0 0.000000 0.000000 0.000000 0.000000 0.000000 0.000000 NONE 0 0 0 0 1 0 0 0 0 0 0 0 0
