@<TRIPOS>MOLECULE
MOL007521
   29    29     1     1     0
SMALL
GASTEIGER


@<TRIPOS>ATOM
      1 C          -0.108827   -1.010316   -0.221274 C.3       1 <1>        -0.024952 
      2 C           0.794080    0.195022    0.190806 C.3       1 <1>         0.002785 
      3 C           0.282532    1.482422   -0.427073 C.2       1 <1>        -0.069301 
      4 C          -1.173295    1.815557   -0.181049 C.3       1 <1>        -0.031404 
      5 C          -2.074235    0.632950   -0.615820 C.3       1 <1>        -0.048842 
      6 C          -1.609367   -0.684575    0.058663 C.3       1 <1>        -0.046760 
      7 C           1.073434    2.284461   -1.154771 C.2       1 <1>        -0.098872 
      8 C           0.289851   -2.280099    0.591063 C.3       1 <1>        -0.058986 
      9 C           0.113225   -1.321680   -1.735066 C.3       1 <1>        -0.058986 
     10 C           0.909680    0.371746    1.691442 C.2       1 <1>        -0.083513 
     11 C           2.064728    0.260271    2.361127 C.2       1 <1>        -0.102048 
     12 H           1.802074   -0.022316   -0.198010 H         1 <1>         0.039307 
     13 H          -1.487201    2.717369   -0.731700 H         1 <1>         0.031009 
     14 H          -1.321658    2.022070    0.889386 H         1 <1>         0.031009 
     15 H          -2.052422    0.533257   -1.712011 H         1 <1>         0.026847 
     16 H          -3.118386    0.844352   -0.328293 H         1 <1>         0.026847 
     17 H          -2.244448   -1.512808   -0.295943 H         1 <1>         0.027080 
     18 H          -1.775136   -0.589694    1.143103 H         1 <1>         0.027080 
     19 H           0.699670    3.207181   -1.597103 H         1 <1>         0.053458 
     20 H           2.121897    2.048469   -1.333311 H         1 <1>         0.053458 
     21 H           0.102161   -2.146529    1.667090 H         1 <1>         0.023526 
     22 H          -0.292935   -3.150479    0.252436 H         1 <1>         0.023526 
     23 H           1.358876   -2.506485    0.457424 H         1 <1>         0.023526 
     24 H          -0.015527   -0.428298   -2.362288 H         1 <1>         0.023526 
     25 H           1.134096   -1.695879   -1.907626 H         1 <1>         0.023526 
     26 H          -0.591449   -2.093057   -2.081188 H         1 <1>         0.023526 
     27 H           0.018702    0.598531    2.276201 H         1 <1>         0.057242 
     28 H           2.094342    0.395271    3.442866 H         1 <1>         0.053193 
     29 H           3.005742    0.033283    1.861021 H         1 <1>         0.053193 
@<TRIPOS>BOND
     1    1    2 1    
     2    1    6 1    
     3    1    8 1    
     4    1    9 1    
     5    2    3 1    
     6    2   10 1    
     7    2   12 1    
     8    3    4 1    
     9    3    7 2    
    10    4    5 1    
    11    4   13 1    
    12    4   14 1    
    13    5    6 1    
    14    5   15 1    
    15    5   16 1    
    16    6   17 1    
    17    6   18 1    
    18    7   19 1    
    19    7   20 1    
    20    8   21 1    
    21    8   22 1    
    22    8   23 1    
    23    9   24 1    
    24    9   25 1    
    25    9   26 1    
    26   10   11 2    
    27   10   27 1    
    28   11   28 1    
    29   11   29 1    
@<TRIPOS>SUBSTRUCTURE
     1 ****        1 TEMP              0 ****  ****    0 ROOT 
@<TRIPOS>NORMAL
@<TRIPOS>FF_PBC
FORCE_FIELD_SETUP_FEATURE Force Field Setup information
v1.0  0 0.000000 0.000000 0.000000 0.000000 0.000000 0.000000 NONE 0 0 0 0 1 0 0 0 0 0 0 0 0
