@<TRIPOS>MOLECULE
MOL001300
   19    19     1     1     0
SMALL
GASTEIGER


@<TRIPOS>ATOM
      1 C           2.426015   -0.184299    0.122846 C.3       1 <1>         0.048173 
      2 C           1.144921   -1.037038   -0.052896 C.3       1 <1>        -0.004407 
      3 C          -0.183398   -0.261163   -0.056097 C.ar      1 <1>        -0.045202 
      4 C          -1.438771   -1.053973   -0.063067 C.ar      1 <1>        -0.058500 
      5 C          -2.690645   -0.419577   -0.063348 C.ar      1 <1>        -0.061500 
      6 C          -2.773069    1.059188   -0.057624 C.ar      1 <1>        -0.061742 
      7 C          -1.598195    1.821754   -0.052888 C.ar      1 <1>        -0.061500 
      8 C          -0.273560    1.155564   -0.052562 C.ar      1 <1>        -0.058500 
      9 O           3.553189   -1.077615    0.178633 O.3       1 <1>        -0.394685 
     10 H           2.540885    0.503781   -0.732278 H         1 <1>         0.056020 
     11 H           2.360231    0.396325    1.059224 H         1 <1>         0.056020 
     12 H           1.106213   -1.765883    0.772371 H         1 <1>         0.033532 
     13 H           1.217393   -1.594098   -1.000362 H         1 <1>         0.033532 
     14 H          -1.389026   -2.138153   -0.068365 H         1 <1>         0.062030 
     15 H          -3.601162   -1.010236   -0.068017 H         1 <1>         0.061766 
     16 H          -3.742345    1.547661   -0.057282 H         1 <1>         0.061758 
     17 H          -1.655773    2.905651   -0.049182 H         1 <1>         0.061766 
     18 H           0.611707    1.778983   -0.049487 H         1 <1>         0.062030 
     19 H           4.385193   -0.626770    0.290281 H         1 <1>         0.209408 
@<TRIPOS>BOND
     1    1    2 1    
     2    1    9 1    
     3    1   10 1    
     4    1   11 1    
     5    2    3 1    
     6    2   12 1    
     7    2   13 1    
     8    3    4 1    
     9    3    8 2    
    10    4    5 2    
    11    4   14 1    
    12    5    6 1    
    13    5   15 1    
    14    6    7 2    
    15    6   16 1    
    16    7    8 1    
    17    7   17 1    
    18    8   18 1    
    19    9   19 1    
@<TRIPOS>SUBSTRUCTURE
     1 ****        1 TEMP              0 ****  ****    0 ROOT 
@<TRIPOS>NORMAL
@<TRIPOS>FF_PBC
FORCE_FIELD_SETUP_FEATURE Force Field Setup information
v1.0  0 0.000000 0.000000 0.000000 0.000000 0.000000 0.000000 NONE 0 0 0 0 1 0 0 0 0 0 0 0 0
