@<TRIPOS>MOLECULE
MOL004266
   29    29     1     1     0
SMALL
GASTEIGER


@<TRIPOS>ATOM
      1 C           0.770183    2.746827   -0.786428 C.2       1 <1>         0.286592 
      2 C           2.211743    2.435341   -0.732667 C.2       1 <1>         0.010491 
      3 C           2.750237    1.229173   -0.503347 C.2       1 <1>        -0.048935 
      4 C           1.927301   -0.028386   -0.332532 C.ar      1 <1>        -0.024693 
      5 C           2.178797   -0.912287    0.830992 C.ar      1 <1>        -0.052153 
      6 C           1.404607   -2.073896    1.015323 C.ar      1 <1>        -0.031135 
      7 C           0.340524   -2.419759    0.045053 C.ar      1 <1>         0.075849 
      8 C           0.114399   -1.601173   -1.070843 C.ar      1 <1>        -0.031135 
      9 C           0.926025   -0.377753   -1.270914 C.ar      1 <1>        -0.052153 
     10 O           0.420468    3.805688   -1.285026 O.2       1 <1>        -0.259879 
     11 O          -0.119071    1.880240   -0.280216 O.3       1 <1>        -0.312146 
     12 O          -0.436118   -3.559882    0.242544 O.3       1 <1>        -0.347912 
     13 C          -1.680523   -3.293846    0.909025 C.3       1 <1>         0.043026 
     14 C          -1.496522    2.277219   -0.419047 C.3       1 <1>         0.054555 
     15 C          -2.365530    1.144689    0.177529 C.3       1 <1>        -0.040969 
     16 H           2.884744    3.279783   -0.885230 H         1 <1>         0.067735 
     17 H           3.833348    1.123724   -0.429887 H         1 <1>         0.062525 
     18 H           2.959695   -0.660702    1.541149 H         1 <1>         0.062423 
     19 H           1.581666   -2.722574    1.866269 H         1 <1>         0.064345 
     20 H          -0.658262   -1.864292   -1.784490 H         1 <1>         0.064345 
     21 H           0.745944    0.247884   -2.138808 H         1 <1>         0.062423 
     22 H          -2.223276   -4.244275    1.018704 H         1 <1>         0.052869 
     23 H          -1.503011   -2.869912    1.909930 H         1 <1>         0.052869 
     24 H          -2.301738   -2.597921    0.323581 H         1 <1>         0.052869 
     25 H          -1.760915    2.413227   -1.482004 H         1 <1>         0.056313 
     26 H          -1.690451    3.216962    0.126100 H         1 <1>         0.056313 
     27 H          -3.435035    1.397114    0.103750 H         1 <1>         0.025189 
     28 H          -2.106759    0.991565    1.236941 H         1 <1>         0.025189 
     29 H          -2.182304    0.205852   -0.368094 H         1 <1>         0.025189 
@<TRIPOS>BOND
     1    1    2 1    
     2    1   10 2    
     3    1   11 1    
     4    2    3 2    
     5    2   16 1    
     6    3    4 1    
     7    3   17 1    
     8    4    5 1    
     9    4    9 2    
    10    5    6 2    
    11    5   18 1    
    12    6    7 1    
    13    6   19 1    
    14    7    8 2    
    15    7   12 1    
    16    8    9 1    
    17    8   20 1    
    18    9   21 1    
    19   11   14 1    
    20   12   13 1    
    21   13   22 1    
    22   13   23 1    
    23   13   24 1    
    24   14   15 1    
    25   14   25 1    
    26   14   26 1    
    27   15   27 1    
    28   15   28 1    
    29   15   29 1    
@<TRIPOS>SUBSTRUCTURE
     1 ****        1 TEMP              0 ****  ****    0 ROOT 
@<TRIPOS>NORMAL
@<TRIPOS>FF_PBC
FORCE_FIELD_SETUP_FEATURE Force Field Setup information
v1.0  0 0.000000 0.000000 0.000000 0.000000 0.000000 0.000000 NONE 0 0 0 0 1 0 0 0 0 0 0 0 0
