@<TRIPOS>MOLECULE
MOL000497
   47    48     1     1     0
SMALL
GASTEIGER


@<TRIPOS>ATOM
      1 C           0.896543   -3.555412    0.053854 C.2       1 <1>         0.186081 
      2 C           0.927925   -2.082974    0.133472 C.2       1 <1>        -0.013714 
      3 C           0.019376   -1.287473   -0.447868 C.2       1 <1>        -0.048485 
      4 O           1.958797   -4.154314    0.007875 O.2       1 <1>        -0.287281 
      5 C          -0.398474   -4.341300    0.036447 C.ar      1 <1>         0.021815 
      6 C          -0.404843   -5.712294   -0.530847 C.ar      1 <1>        -0.048509 
      7 C          -1.592196   -6.459718   -0.571338 C.ar      1 <1>        -0.031268 
      8 C          -2.858624   -5.892311   -0.055242 C.ar      1 <1>         0.072619 
      9 C          -2.859316   -4.592898    0.499064 C.ar      1 <1>        -0.031268 
     10 C          -1.603436   -3.807785    0.557288 C.ar      1 <1>        -0.048509 
     11 O          -4.026448   -6.655050   -0.130032 O.3       1 <1>        -0.359832 
     12 C           0.035222    0.221165   -0.328055 C.ar      1 <1>         0.005510 
     13 C          -1.272925    0.916270   -0.297743 C.ar      1 <1>         0.085384 
     14 C          -1.304401    2.318559   -0.164600 C.ar      1 <1>        -0.001047 
     15 C          -0.045486    3.097658   -0.048647 C.ar      1 <1>         0.079036 
     16 C           1.216178    2.435824   -0.093129 C.ar      1 <1>        -0.007592 
     17 C           1.233210    0.956822   -0.247385 C.ar      1 <1>        -0.045685 
     18 C           3.799396    2.420546    0.216147 C.3       1 <1>        -0.052228 
     19 C           2.510656    3.274324    0.028864 C.3       1 <1>         0.010288 
     20 C           2.377865    4.078452    1.309424 C.2       1 <1>        -0.081090 
     21 C           2.489664    5.408894    1.421234 C.2       1 <1>        -0.101811 
     22 C           2.675308    4.118293   -1.268483 C.3       1 <1>        -0.052228 
     23 O          -2.441680    0.147836   -0.401272 O.3       1 <1>        -0.347243 
     24 C          -3.752694    0.711522   -0.238244 C.3       1 <1>         0.043052 
     25 O          -0.092041    4.485837    0.107441 O.3       1 <1>        -0.359450 
     26 H           1.751105   -1.665457    0.709920 H         1 <1>         0.065602 
     27 H          -0.788215   -1.725137   -1.034630 H         1 <1>         0.062539 
     28 H           0.514283   -6.142295   -0.915985 H         1 <1>         0.062539 
     29 H          -1.591959   -7.463536   -0.982433 H         1 <1>         0.064339 
     30 H          -3.774691   -4.156881    0.884635 H         1 <1>         0.064339 
     31 H          -1.626053   -2.822337    1.009045 H         1 <1>         0.062539 
     32 H          -4.799395   -6.223903    0.217156 H         1 <1>         0.217313 
     33 H          -2.246424    2.849258   -0.144051 H         1 <1>         0.066937 
     34 H           2.170971    0.423074   -0.303747 H         1 <1>         0.062802 
     35 H           4.022496    1.824362   -0.681779 H         1 <1>         0.024112 
     36 H           3.705625    1.744735    1.080290 H         1 <1>         0.024112 
     37 H           4.662967    3.079695    0.397560 H         1 <1>         0.024112 
     38 H           2.173599    3.511818    2.220586 H         1 <1>         0.057493 
     39 H           2.374234    5.879608    2.398500 H         1 <1>         0.053201 
     40 H           2.691078    6.070238    0.580912 H         1 <1>         0.053201 
     41 H           1.835406    4.812353   -1.415239 H         1 <1>         0.024112 
     42 H           2.715769    3.450047   -2.142544 H         1 <1>         0.024112 
     43 H           3.608145    4.702266   -1.240792 H         1 <1>         0.024112 
     44 H          -4.480960   -0.108818   -0.319927 H         1 <1>         0.052870 
     45 H          -3.970803    1.444631   -1.029185 H         1 <1>         0.052870 
     46 H          -3.863925    1.176721    0.753204 H         1 <1>         0.052870 
     47 H          -0.966011    4.841631    0.218434 H         1 <1>         0.217326 
@<TRIPOS>BOND
     1    1    2 1    
     2    1    4 2    
     3    1    5 1    
     4    2    3 2    
     5    2   26 1    
     6    3   12 1    
     7    3   27 1    
     8    5    6 1    
     9    5   10 2    
    10    6    7 2    
    11    6   28 1    
    12    7    8 1    
    13    7   29 1    
    14    8    9 2    
    15    8   11 1    
    16    9   10 1    
    17    9   30 1    
    18   10   31 1    
    19   11   32 1    
    20   12   13 1    
    21   12   17 2    
    22   13   14 2    
    23   13   23 1    
    24   14   15 1    
    25   14   33 1    
    26   15   16 2    
    27   15   25 1    
    28   16   17 1    
    29   16   19 1    
    30   17   34 1    
    31   19   18 1    
    32   18   35 1    
    33   18   36 1    
    34   18   37 1    
    35   19   20 1    
    36   19   22 1    
    37   20   21 2    
    38   20   38 1    
    39   21   39 1    
    40   21   40 1    
    41   22   41 1    
    42   22   42 1    
    43   22   43 1    
    44   23   24 1    
    45   24   44 1    
    46   24   45 1    
    47   24   46 1    
    48   25   47 1    
@<TRIPOS>SUBSTRUCTURE
     1 ****        1 TEMP              0 ****  ****    0 ROOT 
@<TRIPOS>NORMAL
@<TRIPOS>FF_PBC
FORCE_FIELD_SETUP_FEATURE Force Field Setup information
v1.0  0 0.000000 0.000000 0.000000 0.000000 0.000000 0.000000 NONE 0 0 0 0 1 0 0 0 0 0 0 0 0
