@<TRIPOS>MOLECULE
MOL002786
   22    22     1     1     0
SMALL
GASTEIGER


@<TRIPOS>ATOM
      1 C           0.370836    1.188045   -0.694300 C.ar      1 <1>         0.106065 
      2 C           0.963199   -0.094395   -0.250041 C.ar      1 <1>        -0.018687 
      3 C          -1.032395    1.330998   -0.773059 C.ar      1 <1>         0.102473 
      4 O           1.215066    2.246555   -1.035487 O.3       1 <1>        -0.345330 
      5 C           0.143900   -1.187372    0.103237 C.ar      1 <1>         0.019708 
      6 C          -1.897838    0.183399   -0.399710 C.ar      1 <1>        -0.028736 
      7 O          -1.590034    2.541308   -1.198226 O.3       1 <1>        -0.357268 
      8 C           1.277067    3.293167   -0.053445 C.3       1 <1>         0.043136 
      9 C          -1.330864   -1.030558    0.023237 C.ar      1 <1>        -0.048683 
     10 C           0.779001   -2.487702    0.553014 C.2       1 <1>         0.160195 
     11 C          -0.045974   -3.693394    0.919820 C.3       1 <1>        -0.001409 
     12 O           1.995164   -2.566346    0.623001 O.2       1 <1>        -0.292355 
     13 H           2.043344   -0.177223   -0.201828 H         1 <1>         0.065108 
     14 H          -2.977475    0.278786   -0.451759 H         1 <1>         0.064423 
     15 H          -2.534599    2.514765   -1.295611 H         1 <1>         0.217422 
     16 H           1.976871    4.060981   -0.414563 H         1 <1>         0.052871 
     17 H           0.292468    3.760715    0.100173 H         1 <1>         0.052871 
     18 H           1.647537    2.900501    0.906307 H         1 <1>         0.052871 
     19 H          -1.987050   -1.851175    0.290565 H         1 <1>         0.062531 
     20 H           0.602874   -4.538235    1.197742 H         1 <1>         0.030932 
     21 H          -0.665014   -3.997747    0.063050 H         1 <1>         0.030932 
     22 H          -0.694212   -3.455739    1.776111 H         1 <1>         0.030932 
@<TRIPOS>BOND
     1    1    2 1    
     2    1    3 2    
     3    1    4 1    
     4    2    5 2    
     5    2   13 1    
     6    3    6 1    
     7    3    7 1    
     8    4    8 1    
     9    5    9 1    
    10    5   10 1    
    11    6    9 2    
    12    6   14 1    
    13    7   15 1    
    14    8   16 1    
    15    8   17 1    
    16    8   18 1    
    17    9   19 1    
    18   10   11 1    
    19   10   12 2    
    20   11   20 1    
    21   11   21 1    
    22   11   22 1    
@<TRIPOS>SUBSTRUCTURE
     1 ****        1 TEMP              0 ****  ****    0 ROOT 
@<TRIPOS>NORMAL
@<TRIPOS>FF_PBC
FORCE_FIELD_SETUP_FEATURE Force Field Setup information
v1.0  0 0.000000 0.000000 0.000000 0.000000 0.000000 0.000000 NONE 0 0 0 0 1 0 0 0 0 0 0 0 0
