@<TRIPOS>MOLECULE
MOL005573
   33    35     1     1     0
SMALL
GASTEIGER


@<TRIPOS>ATOM
      1 C          -0.511152    2.320091    0.039311 C.ar      1 <1>         0.081945 
      2 C          -0.969646    0.917367    0.005575 C.ar      1 <1>         0.098812 
      3 C           0.983572    2.504741    0.062385 C.2       1 <1>         0.193509 
      4 C          -1.442702    3.382828    0.048261 C.ar      1 <1>         0.088321 
      5 O          -0.043979   -0.128827   -0.003164 O.3       1 <1>        -0.307712 
      6 C          -2.340296    0.627902   -0.017922 C.ar      1 <1>        -0.000283 
      7 C           1.812775    1.292220    0.049162 C.2       1 <1>         0.016918 
      8 O           1.503740    3.608193    0.090983 O.2       1 <1>        -0.287017 
      9 C          -2.892886    3.064127    0.023147 C.ar      1 <1>        -0.001055 
     10 O          -0.995413    4.704969    0.080232 O.3       1 <1>        -0.358955 
     11 C           1.288182    0.056099    0.017823 C.2       1 <1>         0.093865 
     12 C          -3.338833    1.729235   -0.009053 C.ar      1 <1>         0.080751 
     13 C           2.128075   -1.210060    0.003641 C.ar      1 <1>         0.005751 
     14 O          -4.717352    1.483714   -0.031768 O.3       1 <1>        -0.347746 
     15 C           1.413001   -2.513131   -0.030897 C.ar      1 <1>        -0.049682 
     16 C           3.568862   -1.239237    0.021245 C.ar      1 <1>        -0.049682 
     17 C          -5.236706    0.144532   -0.064718 C.3       1 <1>         0.043029 
     18 C           2.115108   -3.733284   -0.045917 C.ar      1 <1>        -0.031304 
     19 C           4.301575   -2.528357    0.005287 C.ar      1 <1>        -0.031304 
     20 C           3.594177   -3.755008   -0.027651 C.ar      1 <1>         0.072619 
     21 O           4.259380   -4.983675   -0.043282 O.3       1 <1>        -0.359832 
     22 H          -2.641401   -0.411485   -0.042413 H         1 <1>         0.066955 
     23 H           2.879306    1.492541    0.067046 H         1 <1>         0.068219 
     24 H          -3.627860    3.861031    0.029393 H         1 <1>         0.066931 
     25 H          -1.693657    5.349495    0.083768 H         1 <1>         0.217342 
     26 H           0.328424   -2.538937   -0.045100 H         1 <1>         0.062503 
     27 H           4.159973   -0.334190    0.046384 H         1 <1>         0.062503 
     28 H          -6.334583    0.210479   -0.077593 H         1 <1>         0.052870 
     29 H          -4.911017   -0.383620   -0.974016 H         1 <1>         0.052870 
     30 H          -4.934305   -0.418995    0.831291 H         1 <1>         0.052870 
     31 H           1.574228   -4.673293   -0.071158 H         1 <1>         0.064339 
     32 H           5.386307   -2.520690    0.019147 H         1 <1>         0.064339 
     33 H           5.207275   -4.915827   -0.029919 H         1 <1>         0.217313 
@<TRIPOS>BOND
     1    1    2 1    
     2    1    3 1    
     3    1    4 2    
     4    2    5 1    
     5    2    6 2    
     6    3    7 1    
     7    3    8 2    
     8    4    9 1    
     9    4   10 1    
    10    5   11 1    
    11    6   12 1    
    12    6   22 1    
    13    7   11 2    
    14    7   23 1    
    15    9   12 2    
    16    9   24 1    
    17   10   25 1    
    18   11   13 1    
    19   12   14 1    
    20   13   15 1    
    21   13   16 2    
    22   14   17 1    
    23   15   18 2    
    24   15   26 1    
    25   16   19 1    
    26   16   27 1    
    27   17   28 1    
    28   17   29 1    
    29   17   30 1    
    30   18   20 1    
    31   18   31 1    
    32   19   20 2    
    33   19   32 1    
    34   20   21 1    
    35   21   33 1    
@<TRIPOS>SUBSTRUCTURE
     1 ****        1 TEMP              0 ****  ****    0 ROOT 
@<TRIPOS>NORMAL
@<TRIPOS>FF_PBC
FORCE_FIELD_SETUP_FEATURE Force Field Setup information
v1.0  0 0.000000 0.000000 0.000000 0.000000 0.000000 0.000000 NONE 0 0 0 0 1 0 0 0 0 0 0 0 0
