@<TRIPOS>MOLECULE
MOL002152
   28    28     1     1     0
SMALL
GASTEIGER


@<TRIPOS>ATOM
      1 C           1.485807    0.927694   -0.685006 C.ar      1 <1>         0.108530 
      2 C           2.117700   -0.353972   -0.283479 C.ar      1 <1>         0.132953 
      3 C           0.091835    1.057004   -0.688110 C.ar      1 <1>        -0.021833 
      4 O           2.270559    2.016390   -1.071286 O.3       1 <1>        -0.345243 
      5 C           1.304127   -1.451383    0.100089 C.ar      1 <1>         0.108530 
      6 O           3.511279   -0.478526   -0.287683 O.3       1 <1>        -0.355384 
      7 C          -0.779361   -0.073513   -0.277752 C.ar      1 <1>        -0.019809 
      8 C           2.992539    2.643376    0.001182 C.3       1 <1>         0.043137 
      9 C          -0.174702   -1.302303    0.100536 C.ar      1 <1>        -0.021833 
     10 O           1.933340   -2.649354    0.469826 O.3       1 <1>        -0.345243 
     11 C          -2.291629    0.030819   -0.250931 C.2       1 <1>        -0.048782 
     12 C           1.176878   -3.807413    0.857555 C.3       1 <1>         0.043137 
     13 C          -2.966444    1.185996   -0.168557 C.2       1 <1>         0.010299 
     14 C          -4.439432    1.270523   -0.152355 C.2       1 <1>         0.284026 
     15 O          -5.027794    2.465301   -0.056079 O.3       1 <1>        -0.327929 
     16 O          -5.110643    0.252546   -0.226475 O.2       1 <1>        -0.260082 
     17 H          -0.329121    2.002665   -1.004972 H         1 <1>         0.065003 
     18 H           3.785571   -1.353015   -0.028521 H         1 <1>         0.217502 
     19 H           3.552988    3.493258   -0.415113 H         1 <1>         0.052871 
     20 H           2.295877    3.020361    0.766036 H         1 <1>         0.052871 
     21 H           3.706943    1.950225    0.470457 H         1 <1>         0.052871 
     22 H          -0.811432   -2.127320    0.393566 H         1 <1>         0.065003 
     23 H          -2.858455   -0.899862   -0.294612 H         1 <1>         0.062527 
     24 H           1.890691   -4.610532    1.093052 H         1 <1>         0.052871 
     25 H           0.575454   -3.604642    1.757004 H         1 <1>         0.052871 
     26 H           0.529360   -4.149683    0.035697 H         1 <1>         0.052871 
     27 H          -2.455114    2.143105   -0.099624 H         1 <1>         0.067729 
     28 H          -5.977023    2.402355   -0.054544 H         1 <1>         0.220537 
@<TRIPOS>BOND
     1    1    2 1    
     2    1    3 2    
     3    1    4 1    
     4    2    5 2    
     5    2    6 1    
     6    3    7 1    
     7    3   17 1    
     8    4    8 1    
     9    5    9 1    
    10    5   10 1    
    11    6   18 1    
    12    7    9 2    
    13    7   11 1    
    14    8   19 1    
    15    8   20 1    
    16    8   21 1    
    17    9   22 1    
    18   10   12 1    
    19   11   13 2    
    20   11   23 1    
    21   12   24 1    
    22   12   25 1    
    23   12   26 1    
    24   13   14 1    
    25   13   27 1    
    26   14   15 1    
    27   14   16 2    
    28   15   28 1    
@<TRIPOS>SUBSTRUCTURE
     1 ****        1 TEMP              0 ****  ****    0 ROOT 
@<TRIPOS>NORMAL
@<TRIPOS>FF_PBC
FORCE_FIELD_SETUP_FEATURE Force Field Setup information
v1.0  0 0.000000 0.000000 0.000000 0.000000 0.000000 0.000000 NONE 0 0 0 0 1 0 0 0 0 0 0 0 0
