@<TRIPOS>MOLECULE
MOL006947
   64    63     1     1     0
SMALL
GASTEIGER


@<TRIPOS>ATOM
      1 C           7.795333    0.540558    0.110643 C.2       1 <1>         0.262238 
      2 C           6.537249   -0.287956    0.121985 C.3       1 <1>         0.033200 
      3 C           5.248505    0.578313    0.112106 C.3       1 <1>        -0.044055 
      4 C           3.971644   -0.306418    0.113921 C.3       1 <1>        -0.052596 
      5 C           2.682030    0.559527    0.105702 C.3       1 <1>        -0.053045 
      6 C           1.405456   -0.325804    0.107003 C.3       1 <1>        -0.053057 
      7 C           0.115536    0.539749    0.100569 C.3       1 <1>        -0.053057 
      8 C          -1.161061   -0.345466    0.106853 C.3       1 <1>        -0.053057 
      9 C          -2.450617    0.520630    0.101977 C.3       1 <1>        -0.053057 
     10 C          -3.727749   -0.363741    0.106710 C.3       1 <1>        -0.053057 
     11 C          -5.016181    0.504037    0.102002 C.3       1 <1>        -0.053057 
     12 C          -6.294634   -0.378346    0.101932 C.3       1 <1>        -0.053057 
     13 C          -7.582070    0.490965    0.098152 C.3       1 <1>        -0.053057 
     14 C          -8.861057   -0.390669    0.097189 C.3       1 <1>        -0.053065 
     15 C         -10.148161    0.478944    0.096652 C.3       1 <1>        -0.053306 
     16 C         -11.426925   -0.402448    0.097842 C.3       1 <1>        -0.055911 
     17 C         -12.710942    0.467518    0.100161 C.3       1 <1>        -0.065276 
     18 O           7.768220    1.761483    0.095368 O.2       1 <1>        -0.264974 
     19 O           8.932470   -0.170122    0.117503 O.3       1 <1>        -0.312540 
     20 C          10.127186    0.639130    0.103365 C.3       1 <1>         0.085113 
     21 C          11.364846   -0.291480    0.111960 C.3       1 <1>         0.102008 
     22 C          11.366626   -1.236778   -1.118061 C.3       1 <1>         0.072312 
     23 O          12.530545   -2.082236   -1.038605 O.3       1 <1>        -0.392387 
     24 O          12.550211    0.525772    0.108124 O.3       1 <1>        -0.387224 
     25 H           6.553089   -0.941499   -0.764152 H         1 <1>         0.036606 
     26 H           6.553633   -0.920911    1.022988 H         1 <1>         0.036606 
     27 H           5.245476    1.230454    1.001334 H         1 <1>         0.027004 
     28 H           5.250147    1.217860   -0.786196 H         1 <1>         0.027004 
     29 H           3.978172   -0.957334   -0.775913 H         1 <1>         0.026540 
     30 H           3.973910   -0.947598    1.010804 H         1 <1>         0.026540 
     31 H           2.674821    1.210263    0.995634 H         1 <1>         0.026529 
     32 H           2.679388    1.201061   -0.790915 H         1 <1>         0.026529 
     33 H           1.411861   -0.976172   -0.783229 H         1 <1>         0.026528 
     34 H           1.408503   -0.967689    1.003342 H         1 <1>         0.026528 
     35 H           0.110320    1.192119    0.989292 H         1 <1>         0.026528 
     36 H           0.110840    1.179591   -0.797260 H         1 <1>         0.026528 
     37 H          -1.156669   -0.997358   -0.782218 H         1 <1>         0.026528 
     38 H          -1.156139   -0.985665    1.004389 H         1 <1>         0.026528 
     39 H          -2.455409    1.171776    0.991621 H         1 <1>         0.026528 
     40 H          -2.455141    1.161668   -0.794960 H         1 <1>         0.026528 
     41 H          -3.723428   -1.014487   -0.783211 H         1 <1>         0.026528 
     42 H          -3.723762   -1.005175    1.003400 H         1 <1>         0.026528 
     43 H          -5.021332    1.152609    0.993512 H         1 <1>         0.026528 
     44 H          -5.018420    1.147621   -0.793107 H         1 <1>         0.026528 
     45 H          -6.290028   -1.026248   -0.790059 H         1 <1>         0.026528 
     46 H          -6.292593   -1.022590    0.996574 H         1 <1>         0.026528 
     47 H          -7.586748    1.138381    0.990511 H         1 <1>         0.026528 
     48 H          -7.583802    1.135849   -0.796056 H         1 <1>         0.026528 
     49 H          -8.857690   -1.036789   -0.796121 H         1 <1>         0.026528 
     50 H          -8.858709   -1.036734    0.990521 H         1 <1>         0.026528 
     51 H         -10.151908    1.125657    0.989533 H         1 <1>         0.026520 
     52 H         -10.152334    1.124436   -0.797126 H         1 <1>         0.026520 
     53 H         -11.431047   -1.048581   -0.795913 H         1 <1>         0.026265 
     54 H         -11.428853   -1.049391    0.991018 H         1 <1>         0.026265 
     55 H         -13.605011   -0.175947    0.101183 H         1 <1>         0.022978 
     56 H         -12.739611    1.107902    0.995568 H         1 <1>         0.022978 
     57 H         -12.742220    1.108851   -0.794462 H         1 <1>         0.022978 
     58 H          10.173194    1.287863    0.994392 H         1 <1>         0.059240 
     59 H          10.167714    1.272426   -0.798387 H         1 <1>         0.059240 
     60 H          11.332757   -0.907141    1.028781 H         1 <1>         0.063932 
     61 H          10.448562   -1.848813   -1.123835 H         1 <1>         0.058350 
     62 H          11.398322   -0.628988   -2.037841 H         1 <1>         0.058350 
     63 H          12.602316   -2.688880   -1.770063 H         1 <1>         0.209508 
     64 H          13.341376   -0.006160    0.094977 H         1 <1>         0.209975 
@<TRIPOS>BOND
     1    1    2 1    
     2    1   18 2    
     3    1   19 1    
     4    2    3 1    
     5    2   25 1    
     6    2   26 1    
     7    3    4 1    
     8    3   27 1    
     9    3   28 1    
    10    4    5 1    
    11    4   29 1    
    12    4   30 1    
    13    5    6 1    
    14    5   31 1    
    15    5   32 1    
    16    6    7 1    
    17    6   33 1    
    18    6   34 1    
    19    7    8 1    
    20    7   35 1    
    21    7   36 1    
    22    8    9 1    
    23    8   37 1    
    24    8   38 1    
    25    9   10 1    
    26    9   39 1    
    27    9   40 1    
    28   10   11 1    
    29   10   41 1    
    30   10   42 1    
    31   11   12 1    
    32   11   43 1    
    33   11   44 1    
    34   12   13 1    
    35   12   45 1    
    36   12   46 1    
    37   13   14 1    
    38   13   47 1    
    39   13   48 1    
    40   14   15 1    
    41   14   49 1    
    42   14   50 1    
    43   15   16 1    
    44   15   51 1    
    45   15   52 1    
    46   16   17 1    
    47   16   53 1    
    48   16   54 1    
    49   17   55 1    
    50   17   56 1    
    51   17   57 1    
    52   19   20 1    
    53   20   21 1    
    54   20   58 1    
    55   20   59 1    
    56   21   22 1    
    57   21   24 1    
    58   21   60 1    
    59   22   23 1    
    60   22   61 1    
    61   22   62 1    
    62   23   63 1    
    63   24   64 1    
@<TRIPOS>SUBSTRUCTURE
     1 ****        1 TEMP              0 ****  ****    0 ROOT 
@<TRIPOS>NORMAL
@<TRIPOS>FF_PBC
FORCE_FIELD_SETUP_FEATURE Force Field Setup information
v1.0  0 0.000000 0.000000 0.000000 0.000000 0.000000 0.000000 NONE 0 0 0 0 1 0 0 0 0 0 0 0 0
