@<TRIPOS>MOLECULE
MOL002885
   17    16     1     1     0
SMALL
GASTEIGER


@<TRIPOS>ATOM
      1 C           0.623505    1.901761   -0.639135 C.2       1 <1>         0.259588 
      2 C           1.301114    0.559738   -0.530168 C.3       1 <1>         0.032997 
      3 C           0.311897   -0.638329   -0.508355 C.3       1 <1>        -0.044310 
      4 C          -0.560951   -0.648953    0.777244 C.3       1 <1>        -0.055450 
      5 C          -1.529686   -1.860155    0.787815 C.3       1 <1>        -0.065265 
      6 O          -0.548570    2.022578   -0.960349 O.2       1 <1>        -0.265177 
      7 O           1.400499    2.953734   -0.372477 O.3       1 <1>        -0.331267 
      8 H           1.964196    0.464950   -1.404680 H         1 <1>         0.036600 
      9 H           1.925947    0.542882    0.376690 H         1 <1>         0.036600 
     10 H           0.891433   -1.575914   -0.550151 H         1 <1>         0.026995 
     11 H          -0.333631   -0.596903   -1.401236 H         1 <1>         0.026995 
     12 H          -1.152959    0.278219    0.842912 H         1 <1>         0.026276 
     13 H           0.090406   -0.702785    1.665438 H         1 <1>         0.026276 
     14 H          -2.140057   -1.849947    1.704850 H         1 <1>         0.022978 
     15 H          -0.965490   -2.805250    0.754149 H         1 <1>         0.022978 
     16 H          -2.204139   -1.819383   -0.081833 H         1 <1>         0.022978 
     17 H           0.926586    3.773656   -0.460310 H         1 <1>         0.220208 
@<TRIPOS>BOND
     1    1    2 1    
     2    1    6 2    
     3    1    7 1    
     4    2    3 1    
     5    2    8 1    
     6    2    9 1    
     7    3    4 1    
     8    3   10 1    
     9    3   11 1    
    10    4    5 1    
    11    4   12 1    
    12    4   13 1    
    13    5   14 1    
    14    5   15 1    
    15    5   16 1    
    16    7   17 1    
@<TRIPOS>SUBSTRUCTURE
     1 ****        1 TEMP              0 ****  ****    0 ROOT 
@<TRIPOS>NORMAL
@<TRIPOS>FF_PBC
FORCE_FIELD_SETUP_FEATURE Force Field Setup information
v1.0  0 0.000000 0.000000 0.000000 0.000000 0.000000 0.000000 NONE 0 0 0 0 1 0 0 0 0 0 0 0 0
