@<TRIPOS>MOLECULE
MOL005272
   48    47     1     1     0
SMALL
GASTEIGER


@<TRIPOS>ATOM
      1 C          -3.175354    5.751497   -0.000065 C.3       1 <1>         0.057053 
      2 C          -1.846742    4.954349    0.000109 C.3       1 <1>        -0.028873 
      3 C          -2.097185    3.421451   -0.000077 C.3       1 <1>        -0.050962 
      4 C          -0.760285    2.630526    0.000123 C.3       1 <1>        -0.052986 
      5 C          -1.011136    1.097648   -0.000103 C.3       1 <1>        -0.053056 
      6 C           0.323808    0.303235    0.000116 C.3       1 <1>        -0.053057 
      7 C           0.067721   -1.228870   -0.000117 C.3       1 <1>        -0.053057 
      8 C           1.399541   -2.028329    0.000105 C.3       1 <1>        -0.053057 
      9 C           1.137843   -3.559561   -0.000114 C.3       1 <1>        -0.053048 
     10 C           2.467396   -4.362624    0.000115 C.3       1 <1>        -0.052779 
     11 C           2.203757   -5.893492   -0.000073 C.3       1 <1>        -0.049624 
     12 C           3.532037   -6.697137    0.000205 C.3       1 <1>        -0.035012 
     13 C           3.292373   -8.187993    0.000054 C.2       1 <1>        -0.091108 
     14 C           4.307402   -9.060432   -0.000091 C.2       1 <1>        -0.102630 
     15 C          -3.926305    7.960792   -0.000098 C.2       1 <1>         0.259041 
     16 C          -3.613209    9.430590   -0.000050 C.3       1 <1>         0.021433 
     17 O          -5.077304    7.551932   -0.000274 O.2       1 <1>        -0.265283 
     18 O          -2.852994    7.157119    0.000039 O.3       1 <1>        -0.315403 
     19 H          -3.758807    5.488719   -0.898921 H         1 <1>         0.056579 
     20 H          -3.759090    5.488644    0.898591 H         1 <1>         0.056579 
     21 H          -1.265291    5.236853    0.893152 H         1 <1>         0.028748 
     22 H          -1.264972    5.237002   -0.892665 H         1 <1>         0.028748 
     23 H          -2.682334    3.148252   -0.893634 H         1 <1>         0.026599 
     24 H          -2.682701    3.148094    0.893215 H         1 <1>         0.026599 
     25 H          -0.175140    2.903888    0.893647 H         1 <1>         0.026529 
     26 H          -0.174759    2.904079   -0.893059 H         1 <1>         0.026529 
     27 H          -1.596673    0.825006   -0.893563 H         1 <1>         0.026528 
     28 H          -1.597087    0.824808    0.893062 H         1 <1>         0.026528 
     29 H           0.909826    0.574773    0.893632 H         1 <1>         0.026528 
     30 H           0.910230    0.574970   -0.893036 H         1 <1>         0.026528 
     31 H          -0.518769   -1.499522   -0.893580 H         1 <1>         0.026528 
     32 H          -0.519188   -1.499723    0.893050 H         1 <1>         0.026528 
     33 H           1.986419   -1.758615    0.893592 H         1 <1>         0.026528 
     34 H           1.986819   -1.758431   -0.893031 H         1 <1>         0.026528 
     35 H           0.550586   -3.828495   -0.893572 H         1 <1>         0.026529 
     36 H           0.550173   -3.828678    0.893040 H         1 <1>         0.026529 
     37 H           3.054834   -4.094373    0.893670 H         1 <1>         0.026538 
     38 H           3.055233   -4.094221   -0.893117 H         1 <1>         0.026538 
     39 H           1.618072   -6.164398   -0.894223 H         1 <1>         0.026822 
     40 H           1.617626   -6.164531    0.893754 H         1 <1>         0.026822 
     41 H           4.120307   -6.434970    0.894359 H         1 <1>         0.030724 
     42 H           4.120764   -6.434828   -0.893607 H         1 <1>         0.030724 
     43 H           2.270332   -8.571228    0.000070 H         1 <1>         0.056630 
     44 H           4.123158  -10.135096   -0.000196 H         1 <1>         0.053174 
     45 H           5.341241   -8.715378   -0.000101 H         1 <1>         0.053174 
     46 H          -4.538736   10.025775    0.000167 H         1 <1>         0.033023 
     47 H          -3.026893    9.680369   -0.896591 H         1 <1>         0.033023 
     48 H          -3.026545    9.680258    0.896291 H         1 <1>         0.033023 
@<TRIPOS>BOND
     1    1    2 1    
     2   18    1 1    
     3    1   19 1    
     4    1   20 1    
     5    2    3 1    
     6    2   21 1    
     7    2   22 1    
     8    3    4 1    
     9    3   23 1    
    10    3   24 1    
    11    4    5 1    
    12    4   25 1    
    13    4   26 1    
    14    5    6 1    
    15    5   27 1    
    16    5   28 1    
    17    6    7 1    
    18    6   29 1    
    19    6   30 1    
    20    7    8 1    
    21    7   31 1    
    22    7   32 1    
    23    8    9 1    
    24    8   33 1    
    25    8   34 1    
    26    9   10 1    
    27    9   35 1    
    28    9   36 1    
    29   10   11 1    
    30   10   37 1    
    31   10   38 1    
    32   11   12 1    
    33   11   39 1    
    34   11   40 1    
    35   12   13 1    
    36   12   41 1    
    37   12   42 1    
    38   13   14 2    
    39   13   43 1    
    40   14   44 1    
    41   14   45 1    
    42   15   16 1    
    43   15   17 2    
    44   15   18 1    
    45   16   46 1    
    46   16   47 1    
    47   16   48 1    
@<TRIPOS>SUBSTRUCTURE
     1 ****       15 TEMP              0 ****  ****    0 ROOT 
@<TRIPOS>NORMAL
@<TRIPOS>FF_PBC
FORCE_FIELD_SETUP_FEATURE Force Field Setup information
v1.0  0 0.000000 0.000000 0.000000 0.000000 0.000000 0.000000 NONE 0 0 0 0 1 0 0 0 0 0 0 0 0
