@<TRIPOS>MOLECULE
MOL012981
   79    81     1     1     0
SMALL
GASTEIGER


@<TRIPOS>ATOM
      1 C           2.225292    2.924663    2.591308 C.ar      1 <1>        -0.029191 
      2 C           2.447261    2.418072    1.219547 C.ar      1 <1>         0.077352 
      3 C           3.304404    1.412538    1.018261 C.ar      1 <1>        -0.022008 
      4 C           3.952432    0.752306    2.183113 C.ar      1 <1>         0.008563 
      5 C           3.759612    1.209688    3.435928 C.ar      1 <1>         0.083127 
      6 C           2.862367    2.373698    3.648185 C.ar      1 <1>        -0.028673 
      7 O           1.755561    3.032267    0.175350 O.3       1 <1>        -0.339075 
      8 N           3.079458   -1.791452    0.784549 N.am      1 <1>        -0.290415 
      9 C           1.266786    2.417465   -1.030508 C.3       1 <1>         0.093591 
     10 C           4.795093   -0.467419    1.907372 C.2       1 <1>        -0.038153 
     11 C           4.344979   -1.532070    1.223217 C.2       1 <1>        -0.003049 
     12 C           1.892958   -1.240777    1.168763 C.2       1 <1>         0.237115 
     13 N           0.350126    1.121172   -2.492819 N.am      1 <1>        -0.286029 
     14 C           2.209384    2.475841   -2.261364 C.3       1 <1>        -0.007985 
     15 C           1.432012    1.656294   -3.327530 C.3       1 <1>         0.018031 
     16 C          -0.264210    0.625158    0.057115 C.2       1 <1>         0.236721 
     17 C           0.699489    0.968670   -1.064876 C.3       1 <1>         0.128701 
     18 N          -0.372334   -0.587987    0.679858 N.am      1 <1>        -0.302375 
     19 C          -0.885784    1.002200   -3.057560 C.2       1 <1>         0.233491 
     20 C           0.587983   -1.704846    0.543250 C.3       1 <1>         0.099947 
     21 C           0.206796   -3.012328    1.346816 C.3       1 <1>        -0.023619 
     22 N          -2.106822   -0.485682   -1.491432 N.3       1 <1>        -0.297625 
     23 C          -2.206107    0.729713   -2.344676 C.3       1 <1>         0.087201 
     24 C          -2.755119    2.065408   -1.723983 C.3       1 <1>        -0.026497 
     25 O          -0.962112    1.541616    0.453200 O.2       1 <1>        -0.273659 
     26 C          -3.277182   -0.805652   -0.631760 C.3       1 <1>        -0.012333 
     27 C          -1.664313   -1.671325   -2.279295 C.3       1 <1>        -0.012333 
     28 O           1.773276   -0.421698    2.060541 O.2       1 <1>        -0.273447 
     29 O          -0.989697    1.135454   -4.266482 O.2       1 <1>        -0.273859 
     30 O           4.383108    0.569431    4.512415 O.3       1 <1>        -0.347323 
     31 C           3.579784    0.282394    5.669834 C.3       1 <1>         0.043051 
     32 C          -0.211467   -4.294593    0.541965 C.3       1 <1>        -0.044591 
     33 C           0.430629   -5.579540    1.150470 C.3       1 <1>        -0.062595 
     34 C          -1.751579   -4.532433    0.532884 C.3       1 <1>        -0.062595 
     35 C          -4.068280    2.603524   -2.379510 C.3       1 <1>        -0.044852 
     36 C          -5.291372    1.680524   -2.100237 C.3       1 <1>        -0.062604 
     37 C          -4.393961    4.033853   -1.856648 C.3       1 <1>        -0.062604 
     38 H           1.544487    3.757710    2.738156 H         1 <1>         0.064408 
     39 H           3.537156    1.051448    0.031206 H         1 <1>         0.064999 
     40 H           2.707310    2.782951    4.637258 H         1 <1>         0.064426 
     41 H           3.006140   -2.557666    0.139143 H         1 <1>         0.154295 
     42 H           0.428624    3.105277   -1.248198 H         1 <1>         0.062512 
     43 H           5.820468   -0.434983    2.275313 H         1 <1>         0.063669 
     44 H           5.111412   -2.279484    0.995207 H         1 <1>         0.078218 
     45 H           2.402761    3.518052   -2.571824 H         1 <1>         0.030620 
     46 H           3.176770    1.997068   -2.049854 H         1 <1>         0.030620 
     47 H           2.028647    0.843488   -3.773572 H         1 <1>         0.046548 
     48 H           1.077886    2.333964   -4.122283 H         1 <1>         0.046548 
     49 H           1.541867    0.269408   -1.001261 H         1 <1>         0.062298 
     50 H          -1.071566   -0.652722    1.391582 H         1 <1>         0.149508 
     51 H           0.761851   -1.933405   -0.518703 H         1 <1>         0.059460 
     52 H          -0.563311   -2.785283    2.098024 H         1 <1>         0.029028 
     53 H           1.079715   -3.321196    1.945334 H         1 <1>         0.029028 
     54 H          -2.915319    0.436291   -3.135142 H         1 <1>         0.055839 
     55 H          -1.992191    2.850527   -1.845375 H         1 <1>         0.028750 
     56 H          -2.955835    2.009703   -0.650708 H         1 <1>         0.028750 
     57 H          -4.146851   -1.095999   -1.236052 H         1 <1>         0.039072 
     58 H          -3.572317    0.011243    0.035021 H         1 <1>         0.039072 
     59 H          -3.031635   -1.637217    0.034845 H         1 <1>         0.039072 
     60 H          -1.321062   -2.464098   -1.609460 H         1 <1>         0.039072 
     61 H          -0.821713   -1.464489   -2.953270 H         1 <1>         0.039072 
     62 H          -2.489262   -2.070458   -2.889571 H         1 <1>         0.039072 
     63 H           4.163814   -0.366633    6.338220 H         1 <1>         0.052870 
     64 H           3.316389    1.190956    6.231312 H         1 <1>         0.052870 
     65 H           2.658981   -0.248605    5.381840 H         1 <1>         0.052870 
     66 H           0.153471   -4.227722   -0.497052 H         1 <1>         0.029618 
     67 H           0.134981   -6.475269    0.580306 H         1 <1>         0.023234 
     68 H           1.529935   -5.520539    1.129566 H         1 <1>         0.023234 
     69 H           0.103449   -5.709368    2.194400 H         1 <1>         0.023234 
     70 H          -2.001270   -5.480553    0.030396 H         1 <1>         0.023234 
     71 H          -2.286118   -3.748001   -0.002958 H         1 <1>         0.023234 
     72 H          -2.148413   -4.572119    1.558905 H         1 <1>         0.023234 
     73 H          -3.918553    2.677074   -3.471322 H         1 <1>         0.029609 
     74 H          -6.206814    2.121694   -2.524610 H         1 <1>         0.023234 
     75 H          -5.169070    0.688480   -2.556142 H         1 <1>         0.023234 
     76 H          -5.438500    1.557539   -1.015698 H         1 <1>         0.023234 
     77 H          -5.309816    4.420249   -2.332648 H         1 <1>         0.023234 
     78 H          -3.573543    4.732730   -2.085975 H         1 <1>         0.023234 
     79 H          -4.549025    4.021161   -0.766018 H         1 <1>         0.023234 
@<TRIPOS>BOND
     1    2    1 1    
     2    1    6 2    
     3    1   38 1    
     4    2    3 2    
     5    7    2 1    
     6    3    4 1    
     7    3   39 1    
     8    4    5 2    
     9    4   10 1    
    10    6    5 1    
    11    5   30 1    
    12    6   40 1    
    13    9    7 1    
    14   11    8 1    
    15    8   12 1    
    16    8   41 1    
    17    9   14 1    
    18   17    9 1    
    19    9   42 1    
    20   10   11 2    
    21   10   43 1    
    22   11   44 1    
    23   12   20 1    
    24   12   28 2    
    25   13   15 1    
    26   13   17 1    
    27   13   19 1    
    28   14   15 1    
    29   14   45 1    
    30   14   46 1    
    31   15   47 1    
    32   15   48 1    
    33   17   16 1    
    34   16   18 1    
    35   16   25 2    
    36   17   49 1    
    37   18   20 1    
    38   18   50 1    
    39   19   23 1    
    40   19   29 2    
    41   20   21 1    
    42   20   51 1    
    43   21   32 1    
    44   21   52 1    
    45   21   53 1    
    46   23   22 1    
    47   22   26 1    
    48   22   27 1    
    49   23   24 1    
    50   23   54 1    
    51   24   35 1    
    52   24   55 1    
    53   24   56 1    
    54   26   57 1    
    55   26   58 1    
    56   26   59 1    
    57   27   60 1    
    58   27   61 1    
    59   27   62 1    
    60   30   31 1    
    61   31   63 1    
    62   31   64 1    
    63   31   65 1    
    64   32   33 1    
    65   32   34 1    
    66   32   66 1    
    67   33   67 1    
    68   33   68 1    
    69   33   69 1    
    70   34   70 1    
    71   34   71 1    
    72   34   72 1    
    73   35   36 1    
    74   35   37 1    
    75   35   73 1    
    76   36   74 1    
    77   36   75 1    
    78   36   76 1    
    79   37   77 1    
    80   37   78 1    
    81   37   79 1    
@<TRIPOS>SUBSTRUCTURE
     1 ****       13 TEMP              0 ****  ****    0 ROOT 
@<TRIPOS>NORMAL
@<TRIPOS>FF_PBC
FORCE_FIELD_SETUP_FEATURE Force Field Setup information
v1.0  0 0.000000 0.000000 0.000000 0.000000 0.000000 0.000000 NONE 0 0 0 0 1 0 0 0 0 0 0 0 0
