@<TRIPOS>MOLECULE
MOL002303
   60    65     1     1     0
SMALL
GASTEIGER


@<TRIPOS>ATOM
      1 C          -0.753993    3.053299    0.263523 C.ar      1 <1>         0.055799 
      2 C          -0.763569    1.601921   -0.220852 C.ar      1 <1>        -0.025441 
      3 C          -1.959429    1.099519   -0.943426 C.ar      1 <1>        -0.051767 
      4 C          -3.214291    1.975307   -1.059001 C.ar      1 <1>        -0.019442 
      5 C          -3.224647    3.327712   -0.452383 C.ar      1 <1>        -0.025865 
      6 C          -1.982035    3.883156    0.218293 C.ar      1 <1>         0.083995 
      7 C           0.558294    3.612647    0.756617 C.2       1 <1>         0.198626 
      8 C           1.786099    3.013887    0.112117 C.ar      1 <1>         0.055780 
      9 C           0.496717    0.781851    0.108980 C.3       1 <1>         0.021578 
     10 C           1.714579    1.606579   -0.349176 C.ar      1 <1>        -0.025769 
     11 C           2.854849    1.062321   -1.227691 C.ar      1 <1>        -0.057128 
     12 C           4.057406    1.891144   -1.478046 C.ar      1 <1>        -0.059013 
     13 C           4.168487    3.289729   -0.877153 C.ar      1 <1>        -0.031220 
     14 C           3.042763    3.858028   -0.103482 C.ar      1 <1>         0.083665 
     15 O           0.622897    4.536392    1.550752 O.2       1 <1>        -0.286459 
     16 O          -2.017802    5.158871    0.785067 O.3       1 <1>        -0.359104 
     17 O           3.132069    5.162595    0.384610 O.3       1 <1>        -0.359114 
     18 C           0.493796   -0.724958   -0.280957 C.3       1 <1>         0.021656 
     19 C           1.748163   -1.531530    0.101895 C.ar      1 <1>        -0.023342 
     20 C           1.808742   -2.938873   -0.363193 C.ar      1 <1>         0.055942 
     21 C           3.084537   -3.767367   -0.216456 C.ar      1 <1>         0.086101 
     22 C           4.248219   -3.188207    0.498421 C.ar      1 <1>        -0.001452 
     23 C           4.157149   -1.783818    1.102825 C.ar      1 <1>         0.075334 
     24 C           2.933367   -0.972524    0.909799 C.ar      1 <1>        -0.027311 
     25 C          -0.725644   -3.019054   -0.325825 C.ar      1 <1>         0.055797 
     26 C          -0.719202   -1.568687    0.152567 C.ar      1 <1>        -0.025520 
     27 C          -1.859674   -1.086227    0.970902 C.ar      1 <1>        -0.054207 
     28 C          -3.083074   -1.974552    1.183653 C.ar      1 <1>        -0.047703 
     29 C          -3.123569   -3.334129    0.595953 C.ar      1 <1>        -0.028304 
     30 C          -1.924520   -3.877254   -0.166115 C.ar      1 <1>         0.083914 
     31 C           0.549991   -3.544310   -0.937654 C.2       1 <1>         0.198628 
     32 O           3.126395   -5.066713   -0.723600 O.3       1 <1>        -0.359031 
     33 O           5.222682   -1.245884    1.822429 O.3       1 <1>        -0.359741 
     34 O           0.542065   -4.435789   -1.771136 O.2       1 <1>        -0.286459 
     35 O          -1.977502   -5.164930   -0.704291 O.3       1 <1>        -0.359105 
     36 C          -4.274719   -1.480171    2.004275 C.3       1 <1>        -0.039620 
     37 C          -4.465025    1.479996   -1.792566 C.3       1 <1>         0.069320 
     38 O          -4.239001    0.285246   -2.558553 O.3       1 <1>        -0.390415 
     39 H          -1.955950    0.119096   -1.401679 H         1 <1>         0.062412 
     40 H          -4.123859    3.932424   -0.482879 H         1 <1>         0.064686 
     41 H           0.542890    0.774213    1.209174 H         1 <1>         0.040672 
     42 H           2.811214    0.067695   -1.651857 H         1 <1>         0.062069 
     43 H           4.871661    1.497351   -2.077304 H         1 <1>         0.061846 
     44 H           5.066097    3.878365   -1.028681 H         1 <1>         0.064340 
     45 H          -1.248208    5.353575    1.311753 H         1 <1>         0.217340 
     46 H           2.403090    5.397928    0.950385 H         1 <1>         0.217340 
     47 H           0.458286   -0.727892   -1.382477 H         1 <1>         0.040673 
     48 H           5.160361   -3.764230    0.609833 H         1 <1>         0.066922 
     49 H           2.910784    0.023767    1.331128 H         1 <1>         0.064633 
     50 H          -1.834197   -0.107402    1.431363 H         1 <1>         0.062331 
     51 H          -4.006770   -3.952224    0.706803 H         1 <1>         0.064604 
     52 H           4.000273   -5.440096   -0.747178 H         1 <1>         0.217341 
     53 H           5.915647   -1.875539    1.986106 H         1 <1>         0.217315 
     54 H          -1.235297   -5.364477   -1.266839 H         1 <1>         0.217340 
     55 H          -4.435984   -2.156258    2.856038 H         1 <1>         0.027754 
     56 H          -4.098226   -0.464218    2.384217 H         1 <1>         0.027754 
     57 H          -5.174600   -1.473858    1.372662 H         1 <1>         0.027754 
     58 H          -4.850081    2.281714   -2.444803 H         1 <1>         0.060711 
     59 H          -5.229039    1.254757   -1.033777 H         1 <1>         0.060711 
     60 H          -3.623542    0.419029   -3.272786 H         1 <1>         0.209847 
@<TRIPOS>BOND
     1    1    2 2    
     2    1    6 1    
     3    1    7 1    
     4    2    3 1    
     5    2    9 1    
     6    3    4 2    
     7    3   39 1    
     8    4    5 1    
     9    4   37 1    
    10    5    6 2    
    11    5   40 1    
    12    6   16 1    
    13    7    8 1    
    14    7   15 2    
    15    8   10 1    
    16    8   14 2    
    17    9   10 1    
    18    9   18 1    
    19    9   41 1    
    20   10   11 2    
    21   11   12 1    
    22   11   42 1    
    23   12   13 2    
    24   12   43 1    
    25   13   14 1    
    26   13   44 1    
    27   14   17 1    
    28   16   45 1    
    29   17   46 1    
    30   18   19 1    
    31   18   26 1    
    32   18   47 1    
    33   19   20 1    
    34   19   24 2    
    35   20   21 2    
    36   20   31 1    
    37   21   22 1    
    38   21   32 1    
    39   22   23 2    
    40   22   48 1    
    41   23   24 1    
    42   23   33 1    
    43   24   49 1    
    44   26   25 2    
    45   25   30 1    
    46   25   31 1    
    47   26   27 1    
    48   27   28 2    
    49   27   50 1    
    50   28   29 1    
    51   28   36 1    
    52   29   30 2    
    53   29   51 1    
    54   30   35 1    
    55   31   34 2    
    56   32   52 1    
    57   33   53 1    
    58   35   54 1    
    59   36   55 1    
    60   36   56 1    
    61   36   57 1    
    62   37   38 1    
    63   37   58 1    
    64   37   59 1    
    65   38   60 1    
@<TRIPOS>SUBSTRUCTURE
     1 ****        1 TEMP              0 ****  ****    0 ROOT 
@<TRIPOS>NORMAL
@<TRIPOS>FF_PBC
FORCE_FIELD_SETUP_FEATURE Force Field Setup information
v1.0  0 0.000000 0.000000 0.000000 0.000000 0.000000 0.000000 NONE 0 0 0 0 1 0 0 0 0 0 0 0 0
