@<TRIPOS>MOLECULE
MOL004974
   48    51     1     1     0
SMALL
GASTEIGER


@<TRIPOS>ATOM
      1 O          -0.594540   -0.969752   -0.786855 O.3       1 <1>        -0.343144 
      2 O          -5.036438    0.943259    0.048156 O.3       1 <1>        -0.334125 
      3 O           3.588936   -1.315067    1.737091 O.3       1 <1>        -0.356971 
      4 O           6.346266   -0.753684    1.255799 O.3       1 <1>        -0.342956 
      5 O           7.100793    1.037579   -0.777923 O.3       1 <1>        -0.357208 
      6 C           1.450654   -0.104472    0.190097 C.3       1 <1>         0.014618 
      7 C           0.731701    1.146487    0.754443 C.3       1 <1>        -0.016186 
      8 C          -0.789024    1.036301    0.603939 C.ar      1 <1>        -0.016010 
      9 C           0.744848   -0.569806   -1.106524 C.3       1 <1>         0.061424 
     10 C          -1.380126    0.004576   -0.165378 C.ar      1 <1>         0.088953 
     11 C           2.942785    0.192640   -0.051070 C.ar      1 <1>        -0.009377 
     12 C          -2.852713   -0.035716   -0.323533 C.ar      1 <1>         0.035007 
     13 C          -5.679391   -0.323525   -0.185794 C.3       1 <1>         0.088837 
     14 C          -3.658245    0.944099    0.267275 C.ar      1 <1>         0.086883 
     15 C          -1.654627    2.041976    1.266951 C.ar      1 <1>        -0.053632 
     16 C          -3.524491   -1.116737   -1.136857 C.2       1 <1>        -0.050887 
     17 C          -3.042688    1.999286    1.102564 C.ar      1 <1>        -0.030640 
     18 C          -4.854771   -1.233967   -1.070349 C.2       1 <1>        -0.051917 
     19 C           3.942447   -0.422480    0.723358 C.ar      1 <1>         0.108554 
     20 C           3.346246    1.145503   -1.117178 C.ar      1 <1>        -0.053187 
     21 C          -5.908249   -1.021647    1.178472 C.3       1 <1>        -0.031936 
     22 C          -7.029844    0.005643   -0.872946 C.3       1 <1>        -0.031936 
     23 C           5.375783   -0.128206    0.468506 C.ar      1 <1>         0.135415 
     24 C           4.694232    1.422166   -1.357016 C.ar      1 <1>        -0.028965 
     25 C           5.748971    0.768144   -0.544278 C.ar      1 <1>         0.105022 
     26 C           7.017474   -1.845447    0.608226 C.3       1 <1>         0.043242 
     27 H           1.328899   -0.929113    0.912560 H         1 <1>         0.037527 
     28 H           1.029325    2.044527    0.192166 H         1 <1>         0.032055 
     29 H           1.009545    1.293984    1.810523 H         1 <1>         0.032055 
     30 H           0.698727    0.225845   -1.865499 H         1 <1>         0.057101 
     31 H           1.271369   -1.437057   -1.535594 H         1 <1>         0.057101 
     32 H          -1.206292    2.816315    1.880134 H         1 <1>         0.062188 
     33 H          -2.926156   -1.786111   -1.755160 H         1 <1>         0.062283 
     34 H          -3.679571    2.734754    1.581036 H         1 <1>         0.064357 
     35 H          -5.354456   -2.012575   -1.646117 H         1 <1>         0.060053 
     36 H           2.597534    1.644504   -1.721882 H         1 <1>         0.062199 
     37 H          -6.447657   -1.971608    1.040742 H         1 <1>         0.026052 
     38 H          -4.942318   -1.227593    1.664570 H         1 <1>         0.026052 
     39 H          -6.499923   -0.369999    1.840034 H         1 <1>         0.026052 
     40 H          -7.623421   -0.905091   -1.047253 H         1 <1>         0.026052 
     41 H          -7.616138    0.695451   -0.246488 H         1 <1>         0.026052 
     42 H          -6.837503    0.494199   -1.840753 H         1 <1>         0.026052 
     43 H           4.964064    2.121605   -2.141885 H         1 <1>         0.064414 
     44 H           4.351889   -1.602105    2.229864 H         1 <1>         0.217433 
     45 H           7.251938    1.726774   -1.414635 H         1 <1>         0.217423 
     46 H           7.544472   -1.509159   -0.297680 H         1 <1>         0.052872 
     47 H           6.301985   -2.639828    0.342694 H         1 <1>         0.052872 
     48 H           7.757200   -2.254771    1.311647 H         1 <1>         0.052872 
@<TRIPOS>BOND
     1    9    1 1    
     2    1   10 1    
     3    2   13 1    
     4   14    2 1    
     5   19    3 1    
     6    3   44 1    
     7   23    4 1    
     8    4   26 1    
     9   25    5 1    
    10    5   45 1    
    11    6    7 1    
    12    6    9 1    
    13   11    6 1    
    14    6   27 1    
    15    7    8 1    
    16    7   28 1    
    17    7   29 1    
    18    8   10 2    
    19    8   15 1    
    20    9   30 1    
    21    9   31 1    
    22   10   12 1    
    23   19   11 2    
    24   11   20 1    
    25   12   14 2    
    26   12   16 1    
    27   18   13 1    
    28   13   21 1    
    29   13   22 1    
    30   17   14 1    
    31   15   17 2    
    32   15   32 1    
    33   16   18 2    
    34   16   33 1    
    35   17   34 1    
    36   18   35 1    
    37   23   19 1    
    38   20   24 2    
    39   20   36 1    
    40   21   37 1    
    41   21   38 1    
    42   21   39 1    
    43   22   40 1    
    44   22   41 1    
    45   22   42 1    
    46   23   25 2    
    47   24   25 1    
    48   24   43 1    
    49   26   46 1    
    50   26   47 1    
    51   26   48 1    
@<TRIPOS>SUBSTRUCTURE
     1 ****        6 TEMP              0 ****  ****    0 ROOT 
@<TRIPOS>NORMAL
@<TRIPOS>FF_PBC
FORCE_FIELD_SETUP_FEATURE Force Field Setup information
v1.0  0 0.000000 0.000000 0.000000 0.000000 0.000000 0.000000 NONE 0 0 0 0 1 0 0 0 0 0 0 0 0
