@<TRIPOS>MOLECULE
MOL002493
   49    49     1     1     0
SMALL
GASTEIGER


@<TRIPOS>ATOM
      1 C          -1.268472   -0.017715   -0.682142 C.3       1 <1>        -0.025264 
      2 C          -1.832028    1.415307   -0.909465 C.3       1 <1>        -0.022784 
      3 C          -0.709682    2.490892   -0.974877 C.3       1 <1>         0.057889 
      4 C           0.137377    2.430219   -2.285748 C.3       1 <1>        -0.000725 
      5 C           1.638141    2.762304   -2.040882 C.3       1 <1>         0.057593 
      6 C           2.361725    1.624374   -1.246278 C.3       1 <1>        -0.026771 
      7 C           2.983267    2.112670    0.092486 C.3       1 <1>        -0.050731 
      8 C           3.535406    0.919702    0.920584 C.3       1 <1>        -0.053226 
      9 C           4.125754    1.385768    2.279077 C.3       1 <1>        -0.055910 
     10 C           4.628325    0.176632    3.111303 C.3       1 <1>        -0.065276 
     11 O          -1.339323    3.781385   -0.860345 O.3       1 <1>        -0.391690 
     12 O           2.244214    2.938514   -3.335454 O.3       1 <1>        -0.391700 
     13 C          -2.296139   -1.111239   -0.353765 C.ar      1 <1>        -0.044678 
     14 C          -1.769139   -2.416951    0.114431 C.ar      1 <1>        -0.025975 
     15 C          -2.610465   -3.487034    0.447503 C.ar      1 <1>         0.105659 
     16 C          -4.087100   -3.314826    0.332964 C.ar      1 <1>         0.102451 
     17 C          -4.596759   -2.070536   -0.119793 C.ar      1 <1>        -0.029141 
     18 C          -3.689942   -0.951651   -0.471534 C.ar      1 <1>        -0.055980 
     19 O          -2.008516   -4.680762    0.876378 O.3       1 <1>        -0.345341 
     20 C          -2.765822   -5.851083    1.217718 C.3       1 <1>         0.043136 
     21 O          -4.959496   -4.358510    0.664414 O.3       1 <1>        -0.357269 
     22 H          -0.572207    0.009756    0.171035 H         1 <1>         0.031398 
     23 H          -0.717828   -0.368336   -1.566568 H         1 <1>         0.031398 
     24 H          -2.433115    1.464533   -1.831454 H         1 <1>         0.029317 
     25 H          -2.478632    1.669578   -0.052629 H         1 <1>         0.029317 
     26 H          -0.078810    2.349598   -0.081835 H         1 <1>         0.059398 
     27 H          -0.281920    3.154307   -3.003162 H         1 <1>         0.031498 
     28 H           0.089169    1.446957   -2.774937 H         1 <1>         0.031498 
     29 H           1.690946    3.725828   -1.502583 H         1 <1>         0.059389 
     30 H           1.662090    0.804060   -1.024815 H         1 <1>         0.029003 
     31 H           3.164542    1.190572   -1.863419 H         1 <1>         0.029003 
     32 H           3.795452    2.826922   -0.120941 H         1 <1>         0.026608 
     33 H           2.218798    2.629652    0.693156 H         1 <1>         0.026608 
     34 H           2.717869    0.206175    1.116337 H         1 <1>         0.026521 
     35 H           4.315116    0.399293    0.340309 H         1 <1>         0.026521 
     36 H           4.963162    2.080637    2.100049 H         1 <1>         0.026265 
     37 H           3.353748    1.920724    2.857661 H         1 <1>         0.026265 
     38 H           5.049113    0.522033    4.068413 H         1 <1>         0.022978 
     39 H           3.798639   -0.515497    3.325206 H         1 <1>         0.022978 
     40 H           5.409970   -0.371124    2.562583 H         1 <1>         0.022978 
     41 H          -0.721784    4.506165   -0.835662 H         1 <1>         0.209778 
     42 H           3.156963    3.207308   -3.289533 H         1 <1>         0.209778 
     43 H          -0.697238   -2.557740    0.203536 H         1 <1>         0.064684 
     44 H          -5.666565   -1.920879   -0.215132 H         1 <1>         0.064412 
     45 H          -4.122541   -0.019915   -0.816241 H         1 <1>         0.062110 
     46 H          -2.050375   -6.636647    1.501635 H         1 <1>         0.052871 
     47 H          -3.349048   -6.209569    0.355794 H         1 <1>         0.052871 
     48 H          -3.425523   -5.658379    2.077314 H         1 <1>         0.052871 
     49 H          -5.881566   -4.128495    0.644990 H         1 <1>         0.217422 
@<TRIPOS>BOND
     1    1    2 1    
     2    1   13 1    
     3    1   22 1    
     4    1   23 1    
     5    2    3 1    
     6    2   24 1    
     7    2   25 1    
     8    3    4 1    
     9    3   11 1    
    10    3   26 1    
    11    4    5 1    
    12    4   27 1    
    13    4   28 1    
    14    5    6 1    
    15    5   12 1    
    16    5   29 1    
    17    6    7 1    
    18    6   30 1    
    19    6   31 1    
    20    7    8 1    
    21    7   32 1    
    22    7   33 1    
    23    8    9 1    
    24    8   34 1    
    25    8   35 1    
    26    9   10 1    
    27    9   36 1    
    28    9   37 1    
    29   10   38 1    
    30   10   39 1    
    31   10   40 1    
    32   11   41 1    
    33   12   42 1    
    34   13   14 1    
    35   13   18 2    
    36   14   15 2    
    37   14   43 1    
    38   15   16 1    
    39   15   19 1    
    40   16   17 2    
    41   16   21 1    
    42   17   18 1    
    43   17   44 1    
    44   18   45 1    
    45   19   20 1    
    46   20   46 1    
    47   20   47 1    
    48   20   48 1    
    49   21   49 1    
@<TRIPOS>SUBSTRUCTURE
     1 ****        1 TEMP              0 ****  ****    0 ROOT 
@<TRIPOS>NORMAL
@<TRIPOS>FF_PBC
FORCE_FIELD_SETUP_FEATURE Force Field Setup information
v1.0  0 0.000000 0.000000 0.000000 0.000000 0.000000 0.000000 NONE 0 0 0 0 1 0 0 0 0 0 0 0 0
