@<TRIPOS>MOLECULE
MOL002778
   14    15     1     1     0
SMALL
GASTEIGER


@<TRIPOS>ATOM
      1 C           0.788838   -0.459196   -0.032489 C.ar      1 <1>         0.133093 
      2 C           0.214380    0.865328   -0.293704 C.ar      1 <1>         0.259109 
      3 N           2.175854   -0.437841   -0.328061 N.ar      1 <1>        -0.194834 
      4 C          -0.016136   -1.509971    0.437811 C.ar      1 <1>        -0.030700 
      5 S           1.401887    1.972731   -0.860122 S.2       1 <1>         0.246461 
      6 C          -1.140568    1.161903   -0.096295 C.ar      1 <1>         0.005196 
      7 C           2.652887    0.761043   -0.772545 C.ar      1 <1>         0.289927 
      8 C          -1.458965   -1.230167    0.658378 C.ar      1 <1>        -0.059406 
      9 C          -2.003212    0.059515    0.400885 C.ar      1 <1>        -0.056371 
     10 H           0.405114   -2.490633    0.632063 H         1 <1>         0.064050 
     11 H          -1.543374    2.149426   -0.296365 H         1 <1>         0.067365 
     12 H           3.689306    0.939430   -1.040141 H         1 <1>         0.152355 
     13 H          -2.105353   -2.023559    1.021528 H         1 <1>         0.061827 
     14 H          -3.060459    0.241790    0.569056 H         1 <1>         0.061930 
@<TRIPOS>BOND
     1    1    2 1    
     2    1    3 1    
     3    1    4 2    
     4    2    5 1    
     5    2    6 2    
     6    3    7 2    
     7    4    8 1    
     8    4   10 1    
     9    5    7 1    
    10    6    9 1    
    11    6   11 1    
    12    7   12 1    
    13    8    9 2    
    14    8   13 1    
    15    9   14 1    
@<TRIPOS>SUBSTRUCTURE
     1 ****        1 TEMP              0 ****  ****    0 ROOT 
@<TRIPOS>NORMAL
@<TRIPOS>FF_PBC
FORCE_FIELD_SETUP_FEATURE Force Field Setup information
v1.0  0 0.000000 0.000000 0.000000 0.000000 0.000000 0.000000 NONE 0 0 0 0 1 0 0 0 0 0 0 0 0
