@<TRIPOS>MOLECULE
MOL004990
   34    36     1     1     0
SMALL
GASTEIGER


@<TRIPOS>ATOM
      1 C          -1.784318    0.264536   -1.442884 C.2       1 <1>         0.299461 
      2 C          -0.983734    0.511060   -0.219837 C.2       1 <1>         0.057145 
      3 C          -0.136550   -0.405594    0.250776 C.2       1 <1>        -0.036084 
      4 C           0.045689   -1.672235   -0.540565 C.ar      1 <1>         0.036435 
      5 C          -0.802594   -1.878122   -1.728380 C.ar      1 <1>         0.098508 
      6 O          -1.703162   -0.887399   -2.130169 O.3       1 <1>        -0.273171 
      7 C          -0.687972   -3.076358   -2.451009 C.ar      1 <1>        -0.000543 
      8 C           0.278036   -4.119788   -2.025797 C.ar      1 <1>         0.077525 
      9 C           1.120262   -3.884939   -0.924058 C.ar      1 <1>        -0.001176 
     10 C           0.999467   -2.618811   -0.166447 C.ar      1 <1>         0.087874 
     11 O          -2.545361    1.124569   -1.847068 O.2       1 <1>        -0.258804 
     12 O           1.840424   -2.363467    0.911510 O.3       1 <1>        -0.347159 
     13 C           2.990245   -1.589458    0.529655 C.3       1 <1>         0.043053 
     14 O           0.351753   -5.315076   -2.739502 O.3       1 <1>        -0.359666 
     15 C          -1.101743    1.819815    0.536167 C.ar      1 <1>         0.017745 
     16 C          -2.440669    2.408061    0.767597 C.ar      1 <1>        -0.048954 
     17 C          -2.560059    3.619483    1.457553 C.ar      1 <1>        -0.031201 
     18 C          -1.357968    4.314860    1.970608 C.ar      1 <1>         0.075055 
     19 C          -0.090812    3.749896    1.770371 C.ar      1 <1>        -0.001570 
     20 C           0.049299    2.474073    1.022039 C.ar      1 <1>         0.082884 
     21 O          -1.517285    5.518674    2.657515 O.3       1 <1>        -0.359750 
     22 O           1.315126    1.924568    0.784001 O.3       1 <1>        -0.359141 
     23 H           0.415266   -0.276748    1.178581 H         1 <1>         0.063295 
     24 H          -1.305095   -3.234072   -3.333801 H         1 <1>         0.066947 
     25 H           1.857105   -4.617767   -0.616635 H         1 <1>         0.066930 
     26 H           3.674086   -2.205536   -0.080513 H         1 <1>         0.052870 
     27 H           3.508078   -1.284705    1.449716 H         1 <1>         0.052870 
     28 H           2.706512   -0.684762   -0.038718 H         1 <1>         0.052870 
     29 H           1.055448   -5.891945   -2.465409 H         1 <1>         0.217316 
     30 H          -3.329073    1.895695    0.400590 H         1 <1>         0.062523 
     31 H          -3.537827    4.058755    1.621551 H         1 <1>         0.064340 
     32 H           0.792348    4.239702    2.156740 H         1 <1>         0.066920 
     33 H          -0.707967    6.004927    2.785051 H         1 <1>         0.217315 
     34 H           2.001713    2.279787    1.335917 H         1 <1>         0.217339 
@<TRIPOS>BOND
     1    1    2 1    
     2    1    6 1    
     3    1   11 2    
     4    2    3 2    
     5    2   15 1    
     6    3    4 1    
     7    3   23 1    
     8    4    5 1    
     9    4   10 2    
    10    5    6 1    
    11    5    7 2    
    12    7    8 1    
    13    7   24 1    
    14    8    9 2    
    15    8   14 1    
    16    9   10 1    
    17    9   25 1    
    18   10   12 1    
    19   12   13 1    
    20   13   26 1    
    21   13   27 1    
    22   13   28 1    
    23   14   29 1    
    24   15   16 1    
    25   15   20 2    
    26   16   17 2    
    27   16   30 1    
    28   17   18 1    
    29   17   31 1    
    30   18   19 2    
    31   18   21 1    
    32   19   20 1    
    33   19   32 1    
    34   20   22 1    
    35   21   33 1    
    36   22   34 1    
@<TRIPOS>SUBSTRUCTURE
     1 ****        1 TEMP              0 ****  ****    0 ROOT 
@<TRIPOS>NORMAL
@<TRIPOS>FF_PBC
FORCE_FIELD_SETUP_FEATURE Force Field Setup information
v1.0  0 0.000000 0.000000 0.000000 0.000000 0.000000 0.000000 NONE 0 0 0 0 1 0 0 0 0 0 0 0 0
