@<TRIPOS>MOLECULE
MOL005277
   65    64     1     1     0
SMALL
GASTEIGER


@<TRIPOS>ATOM
      1 C          -0.104100   -3.032365    0.009454 C.3       1 <1>        -0.043879 
      2 C          -2.781582    1.446788   -0.575601 C.3       1 <1>        -0.043879 
      3 C          -1.321796   -2.129729    0.389324 C.3       1 <1>        -0.050451 
      4 C          -2.719074   -0.013716   -0.023674 C.3       1 <1>        -0.050451 
      5 C          -1.429045   -0.796219   -0.405229 C.3       1 <1>        -0.052574 
      6 C           1.254801   -2.313698    0.272613 C.3       1 <1>        -0.050459 
      7 C          -4.082703    2.133124   -0.048443 C.3       1 <1>        -0.050451 
      8 C           2.485363   -3.261494    0.192878 C.3       1 <1>        -0.052807 
      9 C           3.799849   -2.515110    0.557887 C.3       1 <1>        -0.052807 
     10 C          -4.191502    3.652180   -0.370016 C.3       1 <1>        -0.052582 
     11 C           5.030463   -3.464907    0.499041 C.3       1 <1>        -0.050468 
     12 C          -0.211916   -3.566336   -1.448540 C.3       1 <1>        -0.062415 
     13 C           6.409995   -2.743147    0.622915 C.3       1 <1>        -0.044128 
     14 C          -2.698194    1.477425   -2.129327 C.3       1 <1>        -0.062415 
     15 C          -5.422427    4.295777    0.330701 C.3       1 <1>        -0.050700 
     16 C          -5.496490    5.846094    0.178832 C.3       1 <1>        -0.046721 
     17 C           7.552010   -3.792285    0.439507 C.3       1 <1>        -0.053312 
     18 C           6.543564   -1.981679    1.972990 C.3       1 <1>        -0.062423 
     19 C          -6.714985    6.392969    0.975696 C.3       1 <1>        -0.062665 
     20 C          -5.597494    6.298466   -1.305341 C.3       1 <1>        -0.062665 
     21 C           8.979928   -3.183622    0.383320 C.3       1 <1>        -0.065034 
     22 H          -0.156093   -3.908898    0.680492 H         1 <1>         0.029813 
     23 H          -1.914996    2.001349   -0.175200 H         1 <1>         0.029813 
     24 H          -1.259970   -1.891825    1.464461 H         1 <1>         0.026785 
     25 H          -2.250054   -2.704757    0.235806 H         1 <1>         0.026785 
     26 H          -2.766710    0.032732    1.076835 H         1 <1>         0.026785 
     27 H          -3.598503   -0.577489   -0.375441 H         1 <1>         0.026785 
     28 H          -1.446594   -1.028917   -1.479304 H         1 <1>         0.026545 
     29 H          -0.557282   -0.159006   -0.191241 H         1 <1>         0.026545 
     30 H           1.226973   -1.869994    1.281174 H         1 <1>         0.026785 
     31 H           1.397763   -1.500164   -0.455320 H         1 <1>         0.026785 
     32 H          -4.106659    2.025900    1.048406 H         1 <1>         0.026785 
     33 H          -4.964409    1.613075   -0.457165 H         1 <1>         0.026785 
     34 H           2.583698   -3.660979   -0.828283 H         1 <1>         0.026537 
     35 H           2.345263   -4.107243    0.885889 H         1 <1>         0.026537 
     36 H           3.687409   -2.105440    1.573659 H         1 <1>         0.026537 
     37 H           3.948296   -1.678398   -0.144154 H         1 <1>         0.026537 
     38 H          -4.302612    3.786375   -1.454957 H         1 <1>         0.026545 
     39 H          -3.273220    4.163934   -0.039241 H         1 <1>         0.026545 
     40 H           5.001931   -3.987577   -0.471147 H         1 <1>         0.026785 
     41 H           4.937663   -4.223298    1.293372 H         1 <1>         0.026785 
     42 H           0.476967   -4.408380   -1.612212 H         1 <1>         0.023242 
     43 H          -1.230159   -3.932143   -1.651367 H         1 <1>         0.023242 
     44 H           0.029621   -2.780694   -2.179314 H         1 <1>         0.023242 
     45 H           6.486523   -2.006779   -0.196047 H         1 <1>         0.029804 
     46 H          -2.716543    2.505713   -2.515158 H         1 <1>         0.023242 
     47 H          -1.758506    1.034704   -2.487981 H         1 <1>         0.023242 
     48 H          -3.541191    0.920938   -2.566311 H         1 <1>         0.023242 
     49 H          -5.371344    4.064288    1.407354 H         1 <1>         0.026777 
     50 H          -6.343463    3.840972   -0.069218 H         1 <1>         0.026777 
     51 H          -4.582288    6.288058    0.613584 H         1 <1>         0.029548 
     52 H           7.392265   -4.325658   -0.512897 H         1 <1>         0.026521 
     53 H           7.509019   -4.535048    1.252984 H         1 <1>         0.026521 
     54 H           7.510303   -1.464779    2.046799 H         1 <1>         0.023242 
     55 H           5.770942   -1.206617    2.073504 H         1 <1>         0.023242 
     56 H           6.453298   -2.683073    2.816271 H         1 <1>         0.023242 
     57 H          -5.755038    7.386638   -1.363776 H         1 <1>         0.023233 
     58 H          -4.673857    6.071980   -1.857860 H         1 <1>         0.023233 
     59 H          -6.442150    5.796841   -1.801866 H         1 <1>         0.023233 
     60 H          -6.645988    6.107908    2.037094 H         1 <1>         0.023233 
     61 H          -6.753877    7.492161    0.920871 H         1 <1>         0.023233 
     62 H          -7.653383    5.989441    0.564995 H         1 <1>         0.023233 
     63 H           9.703846   -3.959514    0.086460 H         1 <1>         0.022986 
     64 H           9.296151   -2.795357    1.362459 H         1 <1>         0.022986 
     65 H           9.022195   -2.369106   -0.356296 H         1 <1>         0.022986 
@<TRIPOS>BOND
     1    3    1 1    
     2    1    6 1    
     3    1   12 1    
     4    1   22 1    
     5    4    2 1    
     6    2    7 1    
     7    2   14 1    
     8    2   23 1    
     9    5    3 1    
    10    3   24 1    
    11    3   25 1    
    12    4    5 1    
    13    4   26 1    
    14    4   27 1    
    15    5   28 1    
    16    5   29 1    
    17    6    8 1    
    18    6   30 1    
    19    6   31 1    
    20    7   10 1    
    21    7   32 1    
    22    7   33 1    
    23    8    9 1    
    24    8   34 1    
    25    8   35 1    
    26    9   11 1    
    27    9   36 1    
    28    9   37 1    
    29   10   15 1    
    30   10   38 1    
    31   10   39 1    
    32   11   13 1    
    33   11   40 1    
    34   11   41 1    
    35   12   42 1    
    36   12   43 1    
    37   12   44 1    
    38   13   17 1    
    39   13   18 1    
    40   13   45 1    
    41   14   46 1    
    42   14   47 1    
    43   14   48 1    
    44   15   16 1    
    45   15   49 1    
    46   15   50 1    
    47   16   19 1    
    48   16   20 1    
    49   16   51 1    
    50   17   21 1    
    51   17   52 1    
    52   17   53 1    
    53   18   54 1    
    54   18   55 1    
    55   18   56 1    
    56   19   60 1    
    57   19   61 1    
    58   19   62 1    
    59   20   57 1    
    60   20   58 1    
    61   20   59 1    
    62   21   63 1    
    63   21   64 1    
    64   21   65 1    
@<TRIPOS>SUBSTRUCTURE
     1 ****        2 TEMP              0 ****  ****    0 ROOT 
@<TRIPOS>NORMAL
@<TRIPOS>FF_PBC
FORCE_FIELD_SETUP_FEATURE Force Field Setup information
v1.0  0 0.000000 0.000000 0.000000 0.000000 0.000000 0.000000 NONE 0 0 0 0 1 0 0 0 0 0 0 0 0
