@<TRIPOS>MOLECULE
MOL004050
   35    36     1     1     0
SMALL
GASTEIGER


@<TRIPOS>ATOM
      1 C          -0.061182    2.496612   -0.267351 C.3       1 <1>        -0.014680 
      2 C          -0.995784    1.288985   -0.183530 C.ar      1 <1>        -0.036830 
      3 C           1.145327    2.125998   -1.165528 C.3       1 <1>        -0.027585 
      4 C           1.072520   -0.165534   -0.186990 C.2       1 <1>        -0.041273 
      5 C          -0.437431   -0.016157   -0.145625 C.ar      1 <1>        -0.018212 
      6 C           1.739146   -1.434521    0.315835 C.3       1 <1>        -0.021245 
      7 C           1.791219    0.851460   -0.686085 C.2       1 <1>        -0.079450 
      8 C           0.386750    2.886089    1.165852 C.3       1 <1>        -0.058098 
      9 C          -2.465370    1.480390   -0.137468 C.ar      1 <1>        -0.057491 
     10 C          -1.359876   -1.179195   -0.071912 C.ar      1 <1>        -0.051145 
     11 C           1.996879   -2.397533   -0.872401 C.3       1 <1>        -0.058641 
     12 C           3.052209   -1.187032    1.113976 C.3       1 <1>        -0.058641 
     13 C          -2.751713   -0.994655   -0.027640 C.ar      1 <1>        -0.049865 
     14 C          -3.314305    0.376983   -0.060435 C.ar      1 <1>        -0.058536 
     15 C          -3.678677   -2.212426    0.050867 C.3       1 <1>        -0.039690 
     16 H          -0.590936    3.351058   -0.722503 H         1 <1>         0.034927 
     17 H           1.872051    2.954458   -1.156706 H         1 <1>         0.031324 
     18 H           0.813149    1.969757   -2.204411 H         1 <1>         0.031324 
     19 H           1.060144   -1.912309    1.041310 H         1 <1>         0.034353 
     20 H           2.874486    0.794586   -0.777086 H         1 <1>         0.057517 
     21 H          -0.493747    3.140042    1.776582 H         1 <1>         0.023563 
     22 H           0.917397    2.052096    1.650574 H         1 <1>         0.023563 
     23 H           1.055890    3.759914    1.136712 H         1 <1>         0.023563 
     24 H          -2.883100    2.481623   -0.161896 H         1 <1>         0.062064 
     25 H          -0.974149   -2.190649   -0.058207 H         1 <1>         0.062623 
     26 H           2.416990   -3.349029   -0.511218 H         1 <1>         0.023545 
     27 H           1.062635   -2.610781   -1.413217 H         1 <1>         0.023545 
     28 H           2.708469   -1.943277   -1.578819 H         1 <1>         0.023545 
     29 H           3.361306   -2.109178    1.631955 H         1 <1>         0.023545 
     30 H           3.884157   -0.884421    0.461618 H         1 <1>         0.023545 
     31 H           2.890235   -0.402576    1.870084 H         1 <1>         0.023545 
     32 H          -4.388536    0.526390   -0.026276 H         1 <1>         0.062029 
     33 H          -3.324053   -2.903164    0.830730 H         1 <1>         0.027754 
     34 H          -4.710611   -1.915334    0.290097 H         1 <1>         0.027754 
     35 H          -3.672589   -2.729869   -0.919987 H         1 <1>         0.027754 
@<TRIPOS>BOND
     1    1    2 1    
     2    1    3 1    
     3    1    8 1    
     4    1   16 1    
     5    2    5 2    
     6    2    9 1    
     7    3    7 1    
     8    3   17 1    
     9    3   18 1    
    10    5    4 1    
    11    4    6 1    
    12    4    7 2    
    13    5   10 1    
    14    6   11 1    
    15    6   12 1    
    16    6   19 1    
    17    7   20 1    
    18    8   21 1    
    19    8   22 1    
    20    8   23 1    
    21    9   14 2    
    22    9   24 1    
    23   10   13 2    
    24   10   25 1    
    25   11   26 1    
    26   11   27 1    
    27   11   28 1    
    28   12   29 1    
    29   12   30 1    
    30   12   31 1    
    31   13   14 1    
    32   13   15 1    
    33   14   32 1    
    34   15   33 1    
    35   15   34 1    
    36   15   35 1    
@<TRIPOS>SUBSTRUCTURE
     1 ****        1 TEMP              0 ****  ****    0 ROOT 
@<TRIPOS>NORMAL
@<TRIPOS>FF_PBC
FORCE_FIELD_SETUP_FEATURE Force Field Setup information
v1.0  0 0.000000 0.000000 0.000000 0.000000 0.000000 0.000000 NONE 0 0 0 0 1 0 0 0 0 0 0 0 0
