@<TRIPOS>MOLECULE
MOL005283
  127   132     1     1     0
SMALL
GASTEIGER


@<TRIPOS>ATOM
      1 C           0.929356   -0.005810    1.219942 C.3       1 <1>        -0.020570 
      2 C           2.298461    0.753412    0.894393 C.3       1 <1>        -0.020803 
      3 C          -0.017253    1.000528    1.982070 C.3       1 <1>        -0.026947 
      4 C           0.210998   -0.446410   -0.096290 C.3       1 <1>        -0.020001 
      5 C           1.201777   -1.319271    2.058834 C.3       1 <1>        -0.058701 
      6 C           2.972239    1.107230    2.264874 C.3       1 <1>        -0.003644 
      7 C           3.407193   -0.092987    0.171143 C.3       1 <1>        -0.046421 
      8 C           2.151759    2.040404   -0.023572 C.3       1 <1>        -0.058709 
      9 C          -1.540668    0.585088    2.165800 C.3       1 <1>        -0.022817 
     10 C           0.685034    1.597196    3.257444 C.3       1 <1>        -0.022710 
     11 C          -1.265908   -0.920345    0.062880 C.3       1 <1>         0.066190 
     12 C           4.477512    1.344330    1.935116 C.3       1 <1>        -0.006683 
     13 C           2.129437    2.152982    3.043298 C.3       1 <1>         0.059199 
     14 C           4.721654    0.141696    0.973724 C.3       1 <1>        -0.046740 
     15 C          -2.138099    0.180994    0.758723 C.3       1 <1>        -0.001445 
     16 C          -2.343077    1.835969    2.703155 C.3       1 <1>        -0.044647 
     17 C          -1.681715   -0.558129    3.230580 C.3       1 <1>        -0.058936 
     18 O          -1.812564   -1.208746   -1.244510 O.3       1 <1>        -0.345090 
     19 C           5.561994    1.437155    3.072170 C.3       1 <1>         0.066753 
     20 O           2.695234    2.366364    4.347643 O.3       1 <1>        -0.391475 
     21 C          -3.705688   -0.077844    0.694341 C.3       1 <1>        -0.003243 
     22 C          -3.730446    2.089283    2.049230 C.3       1 <1>        -0.025829 
     23 C          -1.293556   -2.376968   -1.918765 C.3       1 <1>         0.188584 
     24 C           5.761354    2.873608    3.670936 C.3       1 <1>        -0.020552 
     25 C           5.320342    0.423475    4.233828 C.3       1 <1>        -0.035798 
     26 O           6.800816    1.068575    2.431401 O.3       1 <1>        -0.388552 
     27 C          -4.485742    0.772642    1.760546 C.3       1 <1>         0.060719 
     28 C          -4.284094    0.353205   -0.704011 C.3       1 <1>        -0.057108 
     29 C          -4.081904   -1.581606    0.877786 C.3       1 <1>        -0.057108 
     30 C          -2.194575   -2.718033   -3.146611 C.3       1 <1>         0.140625 
     31 O          -1.290254   -3.499605   -1.017978 O.3       1 <1>        -0.340513 
     32 C           6.240682    3.967969    2.671328 C.3       1 <1>        -0.031929 
     33 O          -4.774747    0.054938    2.974118 O.3       1 <1>        -0.391246 
     34 O          -3.545812   -2.262707   -2.892061 O.3       1 <1>        -0.337761 
     35 C          -2.166994   -4.249078   -3.425163 C.3       1 <1>         0.114429 
     36 C          -0.568113   -4.645548   -1.515083 C.3       1 <1>         0.113005 
     37 C           6.657034    5.240195    3.376619 C.2       1 <1>        -0.085195 
     38 C          -4.440887   -2.376962   -4.015179 C.3       1 <1>         0.188431 
     39 C          -0.795227   -4.856101   -3.040297 C.3       1 <1>         0.111906 
     40 O          -2.429397   -4.501401   -4.820650 O.3       1 <1>        -0.386391 
     41 C           0.938723   -4.589852   -1.138452 C.3       1 <1>         0.073015 
     42 C           7.298858    6.266129    2.792119 C.2       1 <1>        -0.079616 
     43 C          -5.803407   -1.757433   -3.621205 C.3       1 <1>         0.134123 
     44 O          -3.859167   -1.628863   -5.102054 O.3       1 <1>        -0.343067 
     45 O          -0.803378   -6.254224   -3.393060 O.3       1 <1>        -0.386488 
     46 O           1.072116   -4.465330    0.290161 O.3       1 <1>        -0.392366 
     47 C           7.697600    7.494713    3.582532 C.3       1 <1>        -0.044050 
     48 C           7.677772    6.298698    1.326208 C.3       1 <1>        -0.044050 
     49 C          -6.752823   -1.805219   -4.848567 C.3       1 <1>         0.113972 
     50 O          -6.361961   -2.468882   -2.494890 O.3       1 <1>        -0.384104 
     51 C          -4.652919   -1.615305   -6.302710 C.3       1 <1>         0.087307 
     52 C          -6.083715   -1.060974   -6.034059 C.3       1 <1>         0.109478 
     53 O          -7.071805   -3.174388   -5.168321 O.3       1 <1>        -0.386402 
     54 C          -4.618303   -2.981106   -7.043931 C.3       1 <1>        -0.036060 
     55 O          -6.042548    0.335983   -5.674073 O.3       1 <1>        -0.386579 
     56 H          -0.123184    1.853600    1.307227 H         1 <1>         0.031237 
     57 H           2.993259    0.234318    2.926909 H         1 <1>         0.033467 
     58 H          -1.991357    1.071705    0.128436 H         1 <1>         0.033712 
     59 H           0.832717   -1.230074   -0.548133 H         1 <1>         0.029575 
     60 H           0.124652    0.368123   -0.821896 H         1 <1>         0.029575 
     61 H           0.571097   -2.165610    1.766652 H         1 <1>         0.023534 
     62 H           2.216295   -1.717441    1.956128 H         1 <1>         0.023534 
     63 H           1.060611   -1.182870    3.135683 H         1 <1>         0.023534 
     64 H           3.574584    0.230484   -0.869710 H         1 <1>         0.027088 
     65 H           3.194278   -1.166172    0.074337 H         1 <1>         0.027088 
     66 H           1.531170    2.857778    0.354536 H         1 <1>         0.023534 
     67 H           3.116034    2.512605   -0.243652 H         1 <1>         0.023534 
     68 H           1.763124    1.792623   -1.018291 H         1 <1>         0.023534 
     69 H           0.100674    2.417866    3.696220 H         1 <1>         0.029314 
     70 H           0.779924    0.845048    4.048764 H         1 <1>         0.029314 
     71 H          -1.352066   -1.833734    0.659368 H         1 <1>         0.060009 
     72 H           4.594636    2.252353    1.341587 H         1 <1>         0.033201 
     73 H           2.133335    3.117855    2.512820 H         1 <1>         0.059620 
     74 H           4.930389   -0.767226    1.557933 H         1 <1>         0.026910 
     75 H           5.587564    0.314112    0.311984 H         1 <1>         0.026910 
     76 H          -2.477935    1.756749    3.794721 H         1 <1>         0.027150 
     77 H          -1.818665    2.789286    2.531322 H         1 <1>         0.027150 
     78 H          -1.160610   -0.306539    4.161975 H         1 <1>         0.023526 
     79 H          -2.715778   -0.723271    3.531413 H         1 <1>         0.023526 
     80 H          -1.316079   -1.532759    2.904295 H         1 <1>         0.023526 
     81 H           2.227015    3.009840    4.871382 H         1 <1>         0.209789 
     82 H          -3.609581    2.640097    1.102059 H         1 <1>         0.029037 
     83 H          -4.336972    2.732188    2.710061 H         1 <1>         0.029037 
     84 H          -0.277858   -2.153346   -2.277580 H         1 <1>         0.093760 
     85 H           6.536598    2.801274    4.451213 H         1 <1>         0.029579 
     86 H           4.850092    3.236433    4.158365 H         1 <1>         0.029579 
     87 H           4.421881    0.679016    4.810539 H         1 <1>         0.025730 
     88 H           5.216801   -0.605026    3.863036 H         1 <1>         0.025730 
     89 H           6.168307    0.431796    4.935133 H         1 <1>         0.025730 
     90 H           7.557754    1.065863    3.007939 H         1 <1>         0.210159 
     91 H          -5.485339    1.038817    1.369522 H         1 <1>         0.059853 
     92 H          -5.356591    0.113946   -0.776931 H         1 <1>         0.023588 
     93 H          -4.176172    1.434165   -0.872927 H         1 <1>         0.023588 
     94 H          -3.808040   -0.144996   -1.551878 H         1 <1>         0.023588 
     95 H          -3.646543   -2.008590    1.789509 H         1 <1>         0.023588 
     96 H          -5.175006   -1.693415    0.946185 H         1 <1>         0.023588 
     97 H          -3.746674   -2.189965    0.025157 H         1 <1>         0.023588 
     98 H          -1.780742   -2.174343   -4.012289 H         1 <1>         0.067477 
     99 H           5.432240    4.252793    1.981962 H         1 <1>         0.030829 
    100 H           7.091744    3.573887    2.095079 H         1 <1>         0.030829 
    101 H          -5.251605    0.561742    3.624279 H         1 <1>         0.209800 
    102 H          -2.935725   -4.731132   -2.795491 H         1 <1>         0.064768 
    103 H          -1.006797   -5.498448   -0.971867 H         1 <1>         0.064668 
    104 H           6.408033    5.319156    4.435712 H         1 <1>         0.057146 
    105 H          -4.607602   -3.438400   -4.246757 H         1 <1>         0.093753 
    106 H          -0.031813   -4.327599   -3.636939 H         1 <1>         0.064673 
    107 H          -2.404032   -5.433007   -5.021429 H         1 <1>         0.210005 
    108 H           1.434719   -5.515308   -1.475812 H         1 <1>         0.058370 
    109 H           1.425476   -3.734013   -1.632341 H         1 <1>         0.058370 
    110 H          -5.607816   -0.708449   -3.340346 H         1 <1>         0.067095 
    111 H           0.023067   -6.696029   -3.226142 H         1 <1>         0.210004 
    112 H           1.976862   -4.424209    0.586325 H         1 <1>         0.209508 
    113 H           7.163605    8.372742    3.189185 H         1 <1>         0.027427 
    114 H           8.779741    7.662884    3.474931 H         1 <1>         0.027427 
    115 H           7.472371    7.412033    4.656605 H         1 <1>         0.027427 
    116 H           7.210327    5.508866    0.722833 H         1 <1>         0.027427 
    117 H           7.375593    7.262647    0.890019 H         1 <1>         0.027427 
    118 H           8.770089    6.202250    1.236824 H         1 <1>         0.027427 
    119 H          -7.685587   -1.277562   -4.580640 H         1 <1>         0.064757 
    120 H          -7.188685   -2.105287   -2.195585 H         1 <1>         0.210110 
    121 H          -4.139660   -0.903047   -6.970161 H         1 <1>         0.062075 
    122 H          -6.709809   -1.174315   -6.936152 H         1 <1>         0.064584 
    123 H          -7.696165   -3.263283   -5.881869 H         1 <1>         0.210005 
    124 H          -5.107415   -2.889691   -8.026286 H         1 <1>         0.025536 
    125 H          -3.569267   -3.275975   -7.204178 H         1 <1>         0.025536 
    126 H          -5.113744   -3.790304   -6.493915 H         1 <1>         0.025536 
    127 H          -5.669961    0.896776   -6.347615 H         1 <1>         0.210002 
@<TRIPOS>BOND
     1    1    2 1    
     2    1    3 1    
     3    1    4 1    
     4    1    5 1    
     5    2    6 1    
     6    2    7 1    
     7    2    8 1    
     8    3    9 1    
     9    3   10 1    
    10    3   56 1    
    11    4   11 1    
    12    4   59 1    
    13    4   60 1    
    14    5   61 1    
    15    5   62 1    
    16    5   63 1    
    17    6   12 1    
    18    6   13 1    
    19    6   57 1    
    20    7   14 1    
    21    7   64 1    
    22    7   65 1    
    23    8   66 1    
    24    8   67 1    
    25    8   68 1    
    26    9   15 1    
    27    9   16 1    
    28    9   17 1    
    29   10   13 1    
    30   10   69 1    
    31   10   70 1    
    32   11   15 1    
    33   11   18 1    
    34   11   71 1    
    35   12   14 1    
    36   12   19 1    
    37   12   72 1    
    38   13   20 1    
    39   13   73 1    
    40   14   74 1    
    41   14   75 1    
    42   15   21 1    
    43   15   58 1    
    44   16   22 1    
    45   16   76 1    
    46   16   77 1    
    47   17   78 1    
    48   17   79 1    
    49   17   80 1    
    50   18   23 1    
    51   19   24 1    
    52   19   25 1    
    53   19   26 1    
    54   20   81 1    
    55   21   27 1    
    56   21   28 1    
    57   21   29 1    
    58   22   27 1    
    59   22   82 1    
    60   22   83 1    
    61   23   30 1    
    62   23   31 1    
    63   23   84 1    
    64   24   32 1    
    65   24   85 1    
    66   24   86 1    
    67   25   87 1    
    68   25   88 1    
    69   25   89 1    
    70   26   90 1    
    71   27   33 1    
    72   27   91 1    
    73   28   92 1    
    74   28   93 1    
    75   28   94 1    
    76   29   95 1    
    77   29   96 1    
    78   29   97 1    
    79   30   34 1    
    80   30   35 1    
    81   30   98 1    
    82   31   36 1    
    83   32   37 1    
    84   32   99 1    
    85   32  100 1    
    86   33  101 1    
    87   34   38 1    
    88   35   39 1    
    89   35   40 1    
    90   35  102 1    
    91   36   39 1    
    92   36   41 1    
    93   36  103 1    
    94   37   42 2    
    95   37  104 1    
    96   38   43 1    
    97   38   44 1    
    98   38  105 1    
    99   39   45 1    
   100   39  106 1    
   101   40  107 1    
   102   41   46 1    
   103   41  108 1    
   104   41  109 1    
   105   42   47 1    
   106   42   48 1    
   107   43   49 1    
   108   43   50 1    
   109   43  110 1    
   110   44   51 1    
   111   45  111 1    
   112   46  112 1    
   113   47  113 1    
   114   47  114 1    
   115   47  115 1    
   116   48  116 1    
   117   48  117 1    
   118   48  118 1    
   119   49   52 1    
   120   49   53 1    
   121   49  119 1    
   122   50  120 1    
   123   51   52 1    
   124   51   54 1    
   125   51  121 1    
   126   52   55 1    
   127   52  122 1    
   128   53  123 1    
   129   54  124 1    
   130   54  125 1    
   131   54  126 1    
   132   55  127 1    
@<TRIPOS>SUBSTRUCTURE
     1 ****        1 TEMP              0 ****  ****    0 ROOT 
@<TRIPOS>NORMAL
@<TRIPOS>FF_PBC
FORCE_FIELD_SETUP_FEATURE Force Field Setup information
v1.0  0 0.000000 0.000000 0.000000 0.000000 0.000000 0.000000 NONE 0 0 0 0 1 0 0 0 0 0 0 0 0
