@<TRIPOS>MOLECULE
MOL001179
   39    41     1     1     0
SMALL
GASTEIGER


@<TRIPOS>ATOM
      1 C          -0.785718    1.183948    0.178310 C.3       1 <1>        -0.016795 
      2 C          -0.818958   -0.373119    0.143955 C.3       1 <1>        -0.028356 
      3 C           0.497146   -1.208630    0.139775 C.3       1 <1>        -0.028671 
      4 C           1.893865   -0.601713    0.446951 C.3       1 <1>        -0.031721 
      5 C           2.081684    0.902172    0.766066 C.3       1 <1>        -0.045745 
      6 C           1.669630    1.774736   -0.445524 C.3       1 <1>        -0.031447 
      7 C           0.193458    1.845551   -0.781383 C.2       1 <1>        -0.073235 
      8 C          -2.289779    1.496854   -0.054416 C.3       1 <1>        -0.045999 
      9 C          -2.767862    0.470810   -1.115770 C.3       1 <1>        -0.049635 
     10 C          -1.731621   -0.693046   -1.082806 C.3       1 <1>        -0.040210 
     11 C          -0.988019   -0.823802   -2.447670 C.3       1 <1>        -0.062136 
     12 C          -0.158317    2.510875   -1.892810 C.2       1 <1>        -0.099175 
     13 C           1.210555   -1.519600    1.489853 C.3       1 <1>        -0.028399 
     14 C           1.901729   -2.904677    1.627146 C.3       1 <1>        -0.059280 
     15 C           0.665805   -0.942501    2.826327 C.3       1 <1>        -0.059280 
     16 H          -0.562442    1.593968    1.173344 H         1 <1>         0.034836 
     17 H          -1.392935   -0.721861    1.020008 H         1 <1>         0.031200 
     18 H           0.447380   -2.167137   -0.396959 H         1 <1>         0.031180 
     19 H           2.647379   -1.047594   -0.222948 H         1 <1>         0.030905 
     20 H           3.165626    1.030050    0.924538 H         1 <1>         0.027121 
     21 H           1.613064    1.254043    1.690818 H         1 <1>         0.027121 
     22 H           1.997093    2.807547   -0.240373 H         1 <1>         0.031008 
     23 H           2.219065    1.415868   -1.331636 H         1 <1>         0.031008 
     24 H          -2.839528    1.291860    0.882363 H         1 <1>         0.027114 
     25 H          -2.495107    2.547152   -0.314641 H         1 <1>         0.027114 
     26 H          -2.817357    0.940752   -2.109586 H         1 <1>         0.026812 
     27 H          -3.785085    0.114456   -0.878490 H         1 <1>         0.026812 
     28 H          -2.248685   -1.657648   -0.924519 H         1 <1>         0.030106 
     29 H          -0.365880   -1.728264   -2.497649 H         1 <1>         0.023250 
     30 H          -1.723503   -0.901411   -3.263728 H         1 <1>         0.023250 
     31 H          -0.342641    0.038851   -2.649234 H         1 <1>         0.023250 
     32 H          -1.176722    2.645762   -2.243485 H         1 <1>         0.053449 
     33 H           0.605631    2.967257   -2.522250 H         1 <1>         0.053449 
     34 H           1.167702   -3.636965    1.994937 H         1 <1>         0.023516 
     35 H           2.720131   -2.824979    2.358179 H         1 <1>         0.023516 
     36 H           2.319346   -3.280784    0.680699 H         1 <1>         0.023516 
     37 H           0.046948   -1.714977    3.306397 H         1 <1>         0.023516 
     38 H           1.519139   -0.724388    3.485599 H         1 <1>         0.023516 
     39 H           0.051195   -0.039940    2.747904 H         1 <1>         0.023516 
@<TRIPOS>BOND
     1    1    2 1    
     2    1    7 1    
     3    1    8 1    
     4    1   16 1    
     5    2    3 1    
     6    2   10 1    
     7    2   17 1    
     8    3    4 1    
     9    3   13 1    
    10    3   18 1    
    11    4    5 1    
    12    4   13 1    
    13    4   19 1    
    14    5    6 1    
    15    5   20 1    
    16    5   21 1    
    17    6    7 1    
    18    6   22 1    
    19    6   23 1    
    20    7   12 2    
    21    8    9 1    
    22    8   24 1    
    23    8   25 1    
    24    9   10 1    
    25    9   26 1    
    26    9   27 1    
    27   10   11 1    
    28   10   28 1    
    29   11   29 1    
    30   11   30 1    
    31   11   31 1    
    32   12   32 1    
    33   12   33 1    
    34   13   14 1    
    35   13   15 1    
    36   14   34 1    
    37   14   35 1    
    38   14   36 1    
    39   15   37 1    
    40   15   38 1    
    41   15   39 1    
@<TRIPOS>SUBSTRUCTURE
     1 ****        1 TEMP              0 ****  ****    0 ROOT 
@<TRIPOS>NORMAL
@<TRIPOS>FF_PBC
FORCE_FIELD_SETUP_FEATURE Force Field Setup information
v1.0  0 0.000000 0.000000 0.000000 0.000000 0.000000 0.000000 NONE 0 0 0 0 1 0 0 0 0 0 0 0 0
