@<TRIPOS>MOLECULE
MOL007330
   31    31     1     1     0
SMALL
GASTEIGER


@<TRIPOS>ATOM
      1 C          -0.539117   -1.069426    0.116367 C.3       1 <1>         0.058534 
      2 C          -0.533519    0.490453    0.048256 C.3       1 <1>        -0.012619 
      3 C           0.788570    0.982317   -0.618664 C.3       1 <1>        -0.047390 
      4 C           2.058566    0.397187    0.049661 C.3       1 <1>        -0.050040 
      5 C           2.028809   -1.149597   -0.000458 C.3       1 <1>        -0.041530 
      6 C           0.762953   -1.638745    0.745124 C.3       1 <1>        -0.023996 
      7 O          -1.620320   -1.513909    0.958075 O.3       1 <1>        -0.391495 
      8 C          -3.138765    0.526039   -0.163035 C.3       1 <1>        -0.062333 
      9 C          -1.785003    1.072159   -0.707244 C.3       1 <1>        -0.041547 
     10 C          -1.831333    2.630496   -0.660545 C.3       1 <1>        -0.062333 
     11 C           3.312425   -1.746456    0.639127 C.3       1 <1>        -0.062334 
     12 H          -0.656524   -1.459703   -0.910105 H         1 <1>         0.059599 
     13 H          -0.551158    0.854880    1.088648 H         1 <1>         0.032812 
     14 H           0.886998    2.075580   -0.542947 H         1 <1>         0.026890 
     15 H           0.784887    0.708262   -1.686180 H         1 <1>         0.026890 
     16 H           2.954128    0.765810   -0.478917 H         1 <1>         0.026796 
     17 H           2.116164    0.738551    1.096577 H         1 <1>         0.026796 
     18 H           1.979096   -1.479508   -1.053221 H         1 <1>         0.029893 
     19 H           0.731816   -2.740328    0.716306 H         1 <1>         0.029270 
     20 H           0.810858   -1.327902    1.801287 H         1 <1>         0.029270 
     21 H          -1.714839   -2.460625    0.995499 H         1 <1>         0.209788 
     22 H          -3.275550   -0.534400   -0.420592 H         1 <1>         0.023243 
     23 H          -3.186140    0.646140    0.930127 H         1 <1>         0.023243 
     24 H          -3.994198    1.059790   -0.604894 H         1 <1>         0.023243 
     25 H          -1.727312    0.776674   -1.769427 H         1 <1>         0.029894 
     26 H          -1.018057    3.088397   -1.240666 H         1 <1>         0.023243 
     27 H          -2.767699    3.013043   -1.095121 H         1 <1>         0.023243 
     28 H          -1.768677    2.980583    0.381058 H         1 <1>         0.023243 
     29 H           3.287372   -2.846395    0.594052 H         1 <1>         0.023243 
     30 H           4.206818   -1.398601    0.099052 H         1 <1>         0.023243 
     31 H           3.398853   -1.440863    1.693198 H         1 <1>         0.023243 
@<TRIPOS>BOND
     1    1    2 1    
     2    1    6 1    
     3    1    7 1    
     4    1   12 1    
     5    2    3 1    
     6    2    9 1    
     7    2   13 1    
     8    3    4 1    
     9    3   14 1    
    10    3   15 1    
    11    4    5 1    
    12    4   16 1    
    13    4   17 1    
    14    5    6 1    
    15    5   11 1    
    16    5   18 1    
    17    6   19 1    
    18    6   20 1    
    19    7   21 1    
    20    9    8 1    
    21    8   22 1    
    22    8   23 1    
    23    8   24 1    
    24    9   10 1    
    25    9   25 1    
    26   10   26 1    
    27   10   27 1    
    28   10   28 1    
    29   11   29 1    
    30   11   30 1    
    31   11   31 1    
@<TRIPOS>SUBSTRUCTURE
     1 ****        1 TEMP              0 ****  ****    0 ROOT 
@<TRIPOS>NORMAL
@<TRIPOS>FF_PBC
FORCE_FIELD_SETUP_FEATURE Force Field Setup information
v1.0  0 0.000000 0.000000 0.000000 0.000000 0.000000 0.000000 NONE 0 0 0 0 1 0 0 0 0 0 0 0 0
