@<TRIPOS>MOLECULE
MOL001745
   57    56     1     1     0
SMALL
GASTEIGER


@<TRIPOS>ATOM
      1 C          -4.473477    8.935141   -0.000011 C.2       1 <1>         0.261905 
      2 C          -3.184763    8.154845   -0.000092 C.3       1 <1>         0.033189 
      3 C          -3.418982    6.619924    0.000102 C.3       1 <1>        -0.044055 
      4 C          -2.076367    5.838936   -0.000014 C.3       1 <1>        -0.052596 
      5 C          -2.318459    4.304691    0.000146 C.3       1 <1>        -0.053045 
      6 C          -0.978983    3.518255   -0.000009 C.3       1 <1>        -0.053057 
      7 C          -1.226263    1.984784    0.000183 C.3       1 <1>        -0.053048 
      8 C           0.110314    1.193550   -0.000150 C.3       1 <1>        -0.052779 
      9 C          -0.143499   -0.338763   -0.000065 C.3       1 <1>        -0.049616 
     10 C           1.188327   -1.136323   -0.000966 C.3       1 <1>        -0.034761 
     11 C           0.950677   -2.627513   -0.001107 C.2       1 <1>        -0.087932 
     12 C           1.963982   -3.503148    0.001150 C.2       1 <1>        -0.087932 
     13 C           1.720778   -4.993410    0.001016 C.3       1 <1>        -0.034761 
     14 C           3.045422   -5.802934    0.000130 C.3       1 <1>        -0.049616 
     15 C           2.772633   -7.332094    0.000219 C.3       1 <1>        -0.052788 
     16 C           4.096411   -8.144438   -0.000172 C.3       1 <1>        -0.053297 
     17 C           3.820695   -9.672884    0.000015 C.3       1 <1>        -0.055911 
     18 C           5.142050  -10.484828   -0.000241 C.3       1 <1>        -0.065276 
     19 O          -5.563761    8.384374    0.000205 O.2       1 <1>        -0.264985 
     20 O          -4.320972   10.267869   -0.000162 O.3       1 <1>        -0.318522 
     21 C          -5.564818   10.995843   -0.000043 C.3       1 <1>         0.045865 
     22 H          -2.610366    8.444289   -0.893969 H         1 <1>         0.036606 
     23 H          -2.610135    8.444454    0.893519 H         1 <1>         0.036606 
     24 H          -4.003139    6.344948    0.894006 H         1 <1>         0.027004 
     25 H          -4.003395    6.344769   -0.893687 H         1 <1>         0.027004 
     26 H          -1.492962    6.115875   -0.893608 H         1 <1>         0.026540 
     27 H          -1.492726    6.116046    0.893314 H         1 <1>         0.026540 
     28 H          -2.902402    4.028387    0.893584 H         1 <1>         0.026529 
     29 H          -2.902668    4.028229   -0.893030 H         1 <1>         0.026529 
     30 H          -0.394697    3.793193   -0.893524 H         1 <1>         0.026528 
     31 H          -0.394369    3.793366    0.893344 H         1 <1>         0.026528 
     32 H          -1.811076    1.710628    0.893727 H         1 <1>         0.026529 
     33 H          -1.811560    1.710539   -0.892921 H         1 <1>         0.026529 
     34 H           0.695653    1.466120   -0.893753 H         1 <1>         0.026538 
     35 H           0.696203    1.466136    0.893130 H         1 <1>         0.026538 
     36 H          -0.727466   -0.612874    0.894252 H         1 <1>         0.026822 
     37 H          -0.728510   -0.612697   -0.893760 H         1 <1>         0.026822 
     38 H           1.775142   -0.872381   -0.895514 H         1 <1>         0.030732 
     39 H           1.776335   -0.872423    0.892810 H         1 <1>         0.030732 
     40 H          -0.072213   -3.007245   -0.003129 H         1 <1>         0.056896 
     41 H           2.987522   -3.125533    0.003173 H         1 <1>         0.056896 
     42 H           1.132053   -5.253507    0.895459 H         1 <1>         0.030732 
     43 H           1.130875   -5.253471   -0.892680 H         1 <1>         0.030732 
     44 H           3.632169   -5.535114   -0.894246 H         1 <1>         0.026822 
     45 H           3.633203   -5.535288    0.893863 H         1 <1>         0.026822 
     46 H           2.183498   -7.596749    0.893727 H         1 <1>         0.026537 
     47 H           2.182898   -7.596758   -0.892917 H         1 <1>         0.026537 
     48 H           4.686135   -7.881235   -0.893778 H         1 <1>         0.026520 
     49 H           4.686693   -7.881160    0.893007 H         1 <1>         0.026520 
     50 H           3.233065   -9.941921    0.893655 H         1 <1>         0.026265 
     51 H           3.232618   -9.942054   -0.893321 H         1 <1>         0.026265 
     52 H           4.923366  -11.564478   -0.000124 H         1 <1>         0.022978 
     53 H           5.738240  -10.248527   -0.895459 H         1 <1>         0.022978 
     54 H           5.738648  -10.248413    0.894660 H         1 <1>         0.022978 
     55 H          -5.327582   12.069942   -0.000190 H         1 <1>         0.052962 
     56 H          -6.160090   10.771525   -0.899795 H         1 <1>         0.052962 
     57 H          -6.159804   10.771710    0.899942 H         1 <1>         0.052962 
@<TRIPOS>BOND
     1    1    2 1    
     2    1   19 2    
     3    1   20 1    
     4    2    3 1    
     5    2   22 1    
     6    2   23 1    
     7    3    4 1    
     8    3   24 1    
     9    3   25 1    
    10    4    5 1    
    11    4   26 1    
    12    4   27 1    
    13    5    6 1    
    14    5   28 1    
    15    5   29 1    
    16    6    7 1    
    17    6   30 1    
    18    6   31 1    
    19    7    8 1    
    20    7   32 1    
    21    7   33 1    
    22    8    9 1    
    23    8   34 1    
    24    8   35 1    
    25    9   10 1    
    26    9   36 1    
    27    9   37 1    
    28   10   11 1    
    29   10   38 1    
    30   10   39 1    
    31   11   12 2    
    32   11   40 1    
    33   12   13 1    
    34   12   41 1    
    35   13   14 1    
    36   13   42 1    
    37   13   43 1    
    38   14   15 1    
    39   14   44 1    
    40   14   45 1    
    41   15   16 1    
    42   15   46 1    
    43   15   47 1    
    44   16   17 1    
    45   16   48 1    
    46   16   49 1    
    47   17   18 1    
    48   17   50 1    
    49   17   51 1    
    50   18   52 1    
    51   18   53 1    
    52   18   54 1    
    53   20   21 1    
    54   21   55 1    
    55   21   56 1    
    56   21   57 1    
@<TRIPOS>SUBSTRUCTURE
     1 ****        1 TEMP              0 ****  ****    0 ROOT 
@<TRIPOS>NORMAL
@<TRIPOS>FF_PBC
FORCE_FIELD_SETUP_FEATURE Force Field Setup information
v1.0  0 0.000000 0.000000 0.000000 0.000000 0.000000 0.000000 NONE 0 0 0 0 1 0 0 0 0 0 0 0 0
