@<TRIPOS>MOLECULE
MOL000391
   53    56     1     1     0
SMALL
GASTEIGER


@<TRIPOS>ATOM
      1 C           2.362741   -0.617129   -0.899480 C.2       1 <1>         0.058253 
      2 C           2.483296   -1.870397   -0.433995 C.2       1 <1>         0.052566 
      3 C           1.306342   -2.632656    0.016066 C.2       1 <1>         0.198092 
      4 C          -0.034589   -1.952729   -0.073781 C.ar      1 <1>         0.052905 
      5 C          -0.020688   -0.572172   -0.596250 C.ar      1 <1>         0.095578 
      6 O           1.183022    0.022354   -0.982874 O.3       1 <1>        -0.315353 
      7 C          -1.213115    0.142774   -0.705848 C.ar      1 <1>        -0.000353 
      8 C          -2.501933   -0.477687   -0.296693 C.ar      1 <1>         0.081963 
      9 C          -2.505557   -1.799317    0.190885 C.ar      1 <1>        -0.030735 
     10 C          -1.241397   -2.563480    0.309826 C.ar      1 <1>        -0.045972 
     11 O           1.398065   -3.766640    0.458370 O.2       1 <1>        -0.286478 
     12 C           3.853747   -2.513975   -0.365857 C.ar      1 <1>        -0.012138 
     13 C           5.022117   -1.740054    0.122340 C.ar      1 <1>        -0.051413 
     14 C           6.289919   -2.336386    0.186747 C.ar      1 <1>        -0.031115 
     15 C           6.490593   -3.746731   -0.218700 C.ar      1 <1>         0.075849 
     16 C           5.380752   -4.488693   -0.686777 C.ar      1 <1>        -0.031115 
     17 C           4.041720   -3.856282   -0.764136 C.ar      1 <1>        -0.051413 
     18 O           7.776166   -4.296203   -0.120183 O.3       1 <1>        -0.347912 
     19 C           8.020521   -5.694150   -0.344980 C.3       1 <1>         0.043026 
     20 O          -3.718716    0.210100   -0.377399 O.3       1 <1>        -0.312468 
     21 C          -3.731256    1.639015   -0.515678 C.3       1 <1>         0.193644 
     22 C          -5.186720    2.147497   -0.370395 C.3       1 <1>         0.134509 
     23 O          -5.983343    1.683003   -1.479102 O.3       1 <1>        -0.384091 
     24 C          -5.197200    3.696044   -0.327258 C.3       1 <1>         0.114074 
     25 O          -6.542458    4.142830   -0.070388 O.3       1 <1>        -0.386401 
     26 C          -4.233358    4.211771    0.770811 C.3       1 <1>         0.111896 
     27 O          -4.192521    5.648756    0.678792 O.3       1 <1>        -0.386488 
     28 C          -2.824834    3.593901    0.564008 C.3       1 <1>         0.113017 
     29 O          -2.902791    2.156158    0.543534 O.3       1 <1>        -0.340168 
     30 C          -1.877872    3.988715    1.725062 C.3       1 <1>         0.073015 
     31 O          -1.852187    5.423623    1.863118 O.3       1 <1>        -0.392366 
     32 H           3.232644   -0.057758   -1.242062 H         1 <1>         0.089749 
     33 H          -1.166992    1.151043   -1.095307 H         1 <1>         0.066954 
     34 H          -3.444128   -2.257084    0.484386 H         1 <1>         0.064350 
     35 H          -1.249301   -3.579329    0.690981 H         1 <1>         0.062621 
     36 H           4.902723   -0.709023    0.438179 H         1 <1>         0.062443 
     37 H           7.141474   -1.765590    0.540768 H         1 <1>         0.064346 
     38 H           5.477382   -5.521828   -0.995332 H         1 <1>         0.064346 
     39 H           3.206840   -4.439878   -1.136515 H         1 <1>         0.062443 
     40 H           9.086774   -5.883664   -0.152261 H         1 <1>         0.052869 
     41 H           7.426659   -6.312672    0.345642 H         1 <1>         0.052869 
     42 H           7.804199   -5.972783   -1.387456 H         1 <1>         0.052869 
     43 H          -3.365293    1.917140   -1.517802 H         1 <1>         0.094159 
     44 H          -5.584579    1.754475    0.580989 H         1 <1>         0.067108 
     45 H          -6.885518    1.984193   -1.416658 H         1 <1>         0.210111 
     46 H          -4.861870    4.073334   -1.309254 H         1 <1>         0.064758 
     47 H          -6.594909    5.093803   -0.023235 H         1 <1>         0.210005 
     48 H          -4.630088    3.900973    1.752354 H         1 <1>         0.064673 
     49 H          -3.574402    6.028432    1.300022 H         1 <1>         0.210004 
     50 H          -2.395712    3.979831   -0.376023 H         1 <1>         0.064668 
     51 H          -0.869648    3.594735    1.508844 H         1 <1>         0.058370 
     52 H          -2.241710    3.522423    2.656206 H         1 <1>         0.058370 
     53 H          -1.263512    5.717466    2.553855 H         1 <1>         0.209508 
@<TRIPOS>BOND
     1    1    2 2    
     2    1    6 1    
     3    1   32 1    
     4    2    3 1    
     5    2   12 1    
     6    3    4 1    
     7    3   11 2    
     8    4    5 1    
     9    4   10 2    
    10    5    6 1    
    11    5    7 2    
    12    7    8 1    
    13    7   33 1    
    14    8    9 2    
    15    8   20 1    
    16    9   10 1    
    17    9   34 1    
    18   10   35 1    
    19   12   13 1    
    20   12   17 2    
    21   13   14 2    
    22   13   36 1    
    23   14   15 1    
    24   14   37 1    
    25   15   16 2    
    26   15   18 1    
    27   16   17 1    
    28   16   38 1    
    29   17   39 1    
    30   18   19 1    
    31   19   40 1    
    32   19   41 1    
    33   19   42 1    
    34   20   21 1    
    35   21   22 1    
    36   21   29 1    
    37   21   43 1    
    38   22   23 1    
    39   22   24 1    
    40   22   44 1    
    41   23   45 1    
    42   24   25 1    
    43   24   26 1    
    44   24   46 1    
    45   25   47 1    
    46   26   27 1    
    47   26   28 1    
    48   26   48 1    
    49   27   49 1    
    50   28   29 1    
    51   28   30 1    
    52   28   50 1    
    53   30   31 1    
    54   30   51 1    
    55   30   52 1    
    56   31   53 1    
@<TRIPOS>SUBSTRUCTURE
     1 ****        1 TEMP              0 ****  ****    0 ROOT 
@<TRIPOS>NORMAL
@<TRIPOS>FF_PBC
FORCE_FIELD_SETUP_FEATURE Force Field Setup information
v1.0  0 0.000000 0.000000 0.000000 0.000000 0.000000 0.000000 NONE 0 0 0 0 1 0 0 0 0 0 0 0 0
