@<TRIPOS>MOLECULE
MOL000980
   39    39     1     1     0
SMALL
GASTEIGER


@<TRIPOS>ATOM
      1 C           1.141286    1.491136   -0.956005 C.2       1 <1>        -0.081014 
      2 C           2.042528    0.300119   -1.180960 C.3       1 <1>        -0.016057 
      3 C           1.217143   -0.828519   -1.758263 C.2       1 <1>        -0.081549 
      4 C           0.460086    1.832179    0.155137 C.2       1 <1>        -0.072857 
      5 C          -0.319702    3.138799    0.104463 C.3       1 <1>        -0.043505 
      6 C           1.597485   -2.115718   -1.786524 C.2       1 <1>        -0.079326 
      7 C           0.672771   -3.197526   -2.301608 C.3       1 <1>        -0.044040 
      8 C           2.949854   -2.592970   -1.305918 C.3       1 <1>        -0.044040 
      9 C          -0.529024    1.525831    2.593461 C.3       1 <1>        -0.042558 
     10 C           0.431661    1.026911    1.464694 C.3       1 <1>        -0.016436 
     11 C          -2.035623    1.288704    2.266124 C.3       1 <1>        -0.031457 
     12 C          -2.291810    0.163474    1.283978 C.2       1 <1>        -0.076493 
     13 C          -1.318858   -0.655338    0.865924 C.2       1 <1>        -0.084465 
     14 C           0.095606   -0.492751    1.339810 C.3       1 <1>        -0.027984 
     15 C          -3.709558   -0.001835    0.789505 C.3       1 <1>        -0.043787 
     16 H           1.064054    2.121657   -1.845042 H         1 <1>         0.057470 
     17 H           2.823252    0.569191   -1.911026 H         1 <1>         0.034978 
     18 H           2.550712    0.040731   -0.241143 H         1 <1>         0.034978 
     19 H           0.238571   -0.564290   -2.164447 H         1 <1>         0.057453 
     20 H          -0.081901    3.754718   -0.775902 H         1 <1>         0.027445 
     21 H          -0.095004    3.773640    0.971803 H         1 <1>         0.027445 
     22 H          -1.394341    2.935193    0.049210 H         1 <1>         0.027445 
     23 H          -0.335034   -2.825547   -2.538950 H         1 <1>         0.027427 
     24 H           0.570123   -3.977168   -1.532263 H         1 <1>         0.027427 
     25 H           1.096729   -3.649986   -3.209515 H         1 <1>         0.027427 
     26 H           3.697710   -1.790699   -1.242211 H         1 <1>         0.027427 
     27 H           3.345001   -3.350026   -1.999104 H         1 <1>         0.027427 
     28 H           2.836568   -3.050932   -0.312463 H         1 <1>         0.027427 
     29 H          -0.295942    0.946687    3.504552 H         1 <1>         0.027409 
     30 H          -0.348070    2.572796    2.875313 H         1 <1>         0.027409 
     31 H           1.458631    1.109636    1.859838 H         1 <1>         0.034856 
     32 H          -2.580849    1.060997    3.197800 H         1 <1>         0.031008 
     33 H          -2.492077    2.205679    1.869182 H         1 <1>         0.031008 
     34 H          -1.539884   -1.466148    0.168441 H         1 <1>         0.057172 
     35 H           0.768559   -1.040817    0.679194 H         1 <1>         0.031313 
     36 H           0.181314   -1.003079    2.312434 H         1 <1>         0.031313 
     37 H          -4.439174    0.344022    1.537263 H         1 <1>         0.027436 
     38 H          -3.833946    0.591594   -0.127925 H         1 <1>         0.027436 
     39 H          -3.933633   -1.056039    0.559440 H         1 <1>         0.027436 
@<TRIPOS>BOND
     1    1    2 1    
     2    1    4 2    
     3    1   16 1    
     4    2    3 1    
     5    2   17 1    
     6    2   18 1    
     7    3    6 2    
     8    3   19 1    
     9    4    5 1    
    10    4   10 1    
    11    5   20 1    
    12    5   21 1    
    13    5   22 1    
    14    6    7 1    
    15    6    8 1    
    16    7   23 1    
    17    7   24 1    
    18    7   25 1    
    19    8   26 1    
    20    8   27 1    
    21    8   28 1    
    22   10    9 1    
    23    9   11 1    
    24    9   29 1    
    25    9   30 1    
    26   10   14 1    
    27   10   31 1    
    28   11   12 1    
    29   11   32 1    
    30   11   33 1    
    31   12   13 2    
    32   12   15 1    
    33   13   14 1    
    34   13   34 1    
    35   14   35 1    
    36   14   36 1    
    37   15   37 1    
    38   15   38 1    
    39   15   39 1    
@<TRIPOS>SUBSTRUCTURE
     1 ****        1 TEMP              0 ****  ****    0 ROOT 
@<TRIPOS>NORMAL
@<TRIPOS>FF_PBC
FORCE_FIELD_SETUP_FEATURE Force Field Setup information
v1.0  0 0.000000 0.000000 0.000000 0.000000 0.000000 0.000000 NONE 0 0 0 0 1 0 0 0 0 0 0 0 0
