@<TRIPOS>MOLECULE
MOL000399
   68    67     1     1     0
SMALL
GASTEIGER


@<TRIPOS>ATOM
      1 C          13.419521    0.454180    0.000033 C.2       1 <1>         0.259588 
      2 C          12.170508   -0.388836   -0.000152 C.3       1 <1>         0.033006 
      3 C          10.874686    0.466742    0.000072 C.3       1 <1>        -0.044061 
      4 C           9.602557   -0.425000   -0.000121 C.3       1 <1>        -0.052596 
      5 C           8.310998    0.438234    0.000117 C.3       1 <1>        -0.053045 
      6 C           7.033214   -0.445289   -0.000109 C.3       1 <1>        -0.053057 
      7 C           5.746352    0.425278    0.000131 C.3       1 <1>        -0.053057 
      8 C           4.463464   -0.450931   -0.000116 C.3       1 <1>        -0.053057 
      9 C           3.180807    0.425974    0.000124 C.3       1 <1>        -0.053057 
     10 C           1.894838   -0.445632   -0.000123 C.3       1 <1>        -0.053057 
     11 C           0.613950    0.433876    0.000121 C.3       1 <1>        -0.053057 
     12 C          -0.672474   -0.437168   -0.000123 C.3       1 <1>        -0.053057 
     13 C          -1.954034    0.441205    0.000123 C.3       1 <1>        -0.053057 
     14 C          -3.239123   -0.431946   -0.000122 C.3       1 <1>        -0.053057 
     15 C          -4.522056    0.444311    0.000123 C.3       1 <1>        -0.053057 
     16 C          -5.806055   -0.430375   -0.000122 C.3       1 <1>        -0.053057 
     17 C          -7.089815    0.444693    0.000123 C.3       1 <1>        -0.053057 
     18 C          -8.372565   -0.431741   -0.000121 C.3       1 <1>        -0.053057 
     19 C          -9.658025    0.440764    0.000125 C.3       1 <1>        -0.053065 
     20 C         -10.938479   -0.438994   -0.000120 C.3       1 <1>        -0.053306 
     21 C         -12.225617    0.430299    0.000126 C.3       1 <1>        -0.055911 
     22 C         -13.501679   -0.451552   -0.000118 C.3       1 <1>        -0.065276 
     23 O          13.386846    1.675061    0.000281 O.2       1 <1>        -0.265177 
     24 O          14.565831   -0.229169   -0.000093 O.3       1 <1>        -0.331267 
     25 H          12.191916   -1.031572   -0.894071 H         1 <1>         0.036600 
     26 H          12.191940   -1.032002    0.893454 H         1 <1>         0.036600 
     27 H          10.869787    1.112475    0.894076 H         1 <1>         0.027004 
     28 H          10.869759    1.112902   -0.893627 H         1 <1>         0.027004 
     29 H           9.609578   -1.070803   -0.893702 H         1 <1>         0.026540 
     30 H           9.609612   -1.071244    0.893138 H         1 <1>         0.026540 
     31 H           8.306180    1.084245    0.893501 H         1 <1>         0.026529 
     32 H           8.306166    1.084717   -0.892926 H         1 <1>         0.026529 
     33 H           7.036579   -1.091123   -0.893622 H         1 <1>         0.026528 
     34 H           7.036590   -1.091601    0.893059 H         1 <1>         0.026528 
     35 H           5.744822    1.071243    0.893537 H         1 <1>         0.026528 
     36 H           5.744825    1.071739   -0.892915 H         1 <1>         0.026528 
     37 H           4.463467   -1.096764   -0.893589 H         1 <1>         0.026528 
     38 H           4.463463   -1.097262    0.892997 H         1 <1>         0.026528 
     39 H           3.181850    1.071929    0.893532 H         1 <1>         0.026528 
     40 H           3.181855    1.072428   -0.892924 H         1 <1>         0.026528 
     41 H           1.893064   -1.091499   -0.893586 H         1 <1>         0.026528 
     42 H           1.893060   -1.092000    0.892977 H         1 <1>         0.026528 
     43 H           0.615870    1.079802    0.893549 H         1 <1>         0.026528 
     44 H           0.615872    1.080301   -0.892946 H         1 <1>         0.026528 
     45 H          -0.674198   -1.083036   -0.893578 H         1 <1>         0.026528 
     46 H          -0.674199   -1.083536    0.892970 H         1 <1>         0.026528 
     47 H          -1.952792    1.087121    0.893561 H         1 <1>         0.026528 
     48 H          -1.952792    1.087622   -0.892954 H         1 <1>         0.026528 
     49 H          -3.239869   -1.077867   -0.893555 H         1 <1>         0.026528 
     50 H          -3.239869   -1.078367    0.892950 H         1 <1>         0.026528 
     51 H          -4.521710    1.090162    0.893594 H         1 <1>         0.026528 
     52 H          -4.521710    1.090662   -0.892986 H         1 <1>         0.026528 
     53 H          -5.806161   -1.076336   -0.893535 H         1 <1>         0.026528 
     54 H          -5.806161   -1.076836    0.892930 H         1 <1>         0.026528 
     55 H          -7.090264    1.090547    0.893589 H         1 <1>         0.026528 
     56 H          -7.090264    1.091047   -0.892981 H         1 <1>         0.026528 
     57 H          -8.371610   -1.077664   -0.893554 H         1 <1>         0.026528 
     58 H          -8.371608   -1.078165    0.892949 H         1 <1>         0.026528 
     59 H          -9.660072    1.086649    0.893591 H         1 <1>         0.026528 
     60 H          -9.660075    1.087149   -0.892980 H         1 <1>         0.026528 
     61 H         -10.936955   -1.084832   -0.893607 H         1 <1>         0.026520 
     62 H         -10.936952   -1.085332    0.893007 H         1 <1>         0.026520 
     63 H         -12.234826    1.076499    0.893772 H         1 <1>         0.026265 
     64 H         -12.234830    1.076998   -0.893158 H         1 <1>         0.026265 
     65 H         -14.401776    0.183494    0.000061 H         1 <1>         0.022978 
     66 H         -13.525960   -1.092485   -0.895272 H         1 <1>         0.022978 
     67 H         -13.525956   -1.092985    0.894679 H         1 <1>         0.022978 
     68 H          15.320603    0.349497    0.000036 H         1 <1>         0.220208 
@<TRIPOS>BOND
     1    1    2 1    
     2    1   23 2    
     3    1   24 1    
     4    2    3 1    
     5    2   25 1    
     6    2   26 1    
     7    3    4 1    
     8    3   27 1    
     9    3   28 1    
    10    4    5 1    
    11    4   29 1    
    12    4   30 1    
    13    5    6 1    
    14    5   31 1    
    15    5   32 1    
    16    6    7 1    
    17    6   33 1    
    18    6   34 1    
    19    7    8 1    
    20    7   35 1    
    21    7   36 1    
    22    8    9 1    
    23    8   37 1    
    24    8   38 1    
    25    9   10 1    
    26    9   39 1    
    27    9   40 1    
    28   10   11 1    
    29   10   41 1    
    30   10   42 1    
    31   11   12 1    
    32   11   43 1    
    33   11   44 1    
    34   12   13 1    
    35   12   45 1    
    36   12   46 1    
    37   13   14 1    
    38   13   47 1    
    39   13   48 1    
    40   14   15 1    
    41   14   49 1    
    42   14   50 1    
    43   15   16 1    
    44   15   51 1    
    45   15   52 1    
    46   16   17 1    
    47   16   53 1    
    48   16   54 1    
    49   17   18 1    
    50   17   55 1    
    51   17   56 1    
    52   18   19 1    
    53   18   57 1    
    54   18   58 1    
    55   19   20 1    
    56   19   59 1    
    57   19   60 1    
    58   20   21 1    
    59   20   61 1    
    60   20   62 1    
    61   21   22 1    
    62   21   63 1    
    63   21   64 1    
    64   22   65 1    
    65   22   66 1    
    66   22   67 1    
    67   24   68 1    
@<TRIPOS>SUBSTRUCTURE
     1 ****        1 TEMP              0 ****  ****    0 ROOT 
@<TRIPOS>NORMAL
@<TRIPOS>FF_PBC
FORCE_FIELD_SETUP_FEATURE Force Field Setup information
v1.0  0 0.000000 0.000000 0.000000 0.000000 0.000000 0.000000 NONE 0 0 0 0 1 0 0 0 0 0 0 0 0
