@<TRIPOS>MOLECULE
MOL004975
   80    85     1     1     0
SMALL
GASTEIGER


@<TRIPOS>ATOM
      1 C          -3.870928   -0.644202   -2.373158 C.3       1 <1>        -0.024980 
      2 C          -4.016786   -2.061775   -1.738415 C.3       1 <1>         0.073194 
      3 C          -2.832926   -3.043275   -2.110537 C.3       1 <1>        -0.004741 
      4 C          -1.472866   -2.303552   -1.794617 C.3       1 <1>        -0.027421 
      5 C          -1.242062   -0.855528   -2.356789 C.3       1 <1>        -0.018249 
      6 C          -2.509139    0.005276   -2.018807 C.3       1 <1>        -0.044305 
      7 C          -0.108050   -3.094905   -1.719430 C.3       1 <1>        -0.048587 
      8 C           1.112968   -2.306693   -1.090003 C.3       1 <1>        -0.045876 
      9 C           0.753592   -0.906511   -0.482126 C.3       1 <1>        -0.012656 
     10 C           0.036484   -0.218968   -1.715311 C.3       1 <1>         0.033332 
     11 C           1.952610    0.008718    0.058621 C.3       1 <1>        -0.004330 
     12 C           1.411770    1.404216    0.383938 C.2       1 <1>        -0.056101 
     13 C           0.465386    1.945202   -0.404211 C.2       1 <1>        -0.018838 
     14 C           0.012407    1.270191   -1.604823 C.2       1 <1>         0.160199 
     15 C           2.717078   -0.602543    1.308770 C.3       1 <1>        -0.042787 
     16 C           2.503162    0.090244    2.753521 C.3       1 <1>        -0.043901 
     17 C           1.592055    1.369046    2.897109 C.3       1 <1>         0.001346 
     18 C           1.975305    2.123055    1.602483 C.3       1 <1>        -0.010239 
     19 C           2.099496    2.296372    4.098775 C.3       1 <1>         0.074936 
     20 C           1.718167    3.843684    4.229783 C.3       1 <1>        -0.011012 
     21 C           2.472660    4.347680    2.888107 C.3       1 <1>         0.056271 
     22 C           1.604743    3.576621    1.762600 C.3       1 <1>        -0.031350 
     23 C           3.612941    3.759765    3.757409 C.2       1 <1>         0.268488 
     24 C           3.395127    5.420603    2.161246 C.3       1 <1>        -0.050390 
     25 O           3.499263    2.447889    3.914846 O.3       1 <1>        -0.310871 
     26 O           4.476150    4.313919    4.388854 O.2       1 <1>        -0.264354 
     27 C           3.059630    0.323906   -1.021185 C.3       1 <1>        -0.055302 
     28 C           0.029802    1.137742    3.206663 C.3       1 <1>        -0.056635 
     29 O          -0.323803    1.946774   -2.554818 O.2       1 <1>        -0.292347 
     30 C          -6.056979   -3.162958   -1.249033 C.2       1 <1>         0.249393 
     31 C          -3.005928   -3.581501   -3.570764 C.3       1 <1>        -0.057165 
     32 C          -2.971513   -4.308667   -1.187513 C.3       1 <1>        -0.057165 
     33 C          -1.050754   -0.838520   -3.904817 C.3       1 <1>        -0.058618 
     34 C          -0.152249   -1.178729    0.781492 C.3       1 <1>        -0.058099 
     35 H          -4.682555   -0.002682   -1.962819 H         1 <1>         0.029062 
     36 H          -4.048767   -0.687592   -3.465200 H         1 <1>         0.029062 
     37 H          -4.007650   -1.846791   -0.650405 H         1 <1>         0.060730 
     38 H          -1.687144   -2.132492   -0.755391 H         1 <1>         0.031221 
     39 H          -2.501242    0.964086   -2.556369 H         1 <1>         0.027160 
     40 H          -2.522577    0.245485   -0.944058 H         1 <1>         0.027160 
     41 H          -0.241286   -3.997041   -1.093586 H         1 <1>         0.026846 
     42 H           0.158380   -3.465973   -2.721528 H         1 <1>         0.026846 
     43 H           1.629638   -2.933587   -0.338480 H         1 <1>         0.027107 
     44 H           1.868574   -2.172123   -1.889504 H         1 <1>         0.027107 
     45 H           0.822374   -0.283422   -2.485562 H         1 <1>         0.039170 
     46 H          -0.031496    2.889768   -0.288521 H         1 <1>         0.065218 
     47 H           3.811261   -0.579028    1.119812 H         1 <1>         0.027393 
     48 H           2.521226   -1.689247    1.358654 H         1 <1>         0.027393 
     49 H           3.525318    0.475797    2.975436 H         1 <1>         0.027177 
     50 H           2.348495   -0.681178    3.544919 H         1 <1>         0.027177 
     51 H           3.066867    2.221820    1.445150 H         1 <1>         0.035227 
     52 H           1.938140    1.761291    5.037176 H         1 <1>         0.060788 
     53 H           1.924692    4.342170    5.227759 H         1 <1>         0.030059 
     54 H           0.635142    4.004232    4.192279 H         1 <1>         0.030059 
     55 H           0.541314    3.458797    1.988119 H         1 <1>         0.028123 
     56 H           1.672707    4.085165    0.786108 H         1 <1>         0.028123 
     57 H           2.921824    5.966631    1.313546 H         1 <1>         0.023987 
     58 H           3.852316    6.204274    2.821472 H         1 <1>         0.023987 
     59 H           4.299787    4.958288    1.626146 H         1 <1>         0.023987 
     60 H           3.832798    0.957023   -0.581732 H         1 <1>         0.023829 
     61 H           2.700650    0.873430   -1.891338 H         1 <1>         0.023829 
     62 H           3.557952   -0.586435   -1.361261 H         1 <1>         0.023829 
     63 H          -0.152699    0.169140    3.723365 H         1 <1>         0.023605 
     64 H          -0.415377    1.916238    3.855799 H         1 <1>         0.023605 
     65 H          -0.595126    1.102091    2.308882 H         1 <1>         0.023605 
     66 O          -7.163131   -3.556369   -1.559788 O.2       1 <1>        -0.268717 
     67 H          -3.332571   -2.825480   -4.283863 H         1 <1>         0.023588 
     68 H          -2.050079   -3.982237   -3.935913 H         1 <1>         0.023588 
     69 H          -3.783270   -4.362988   -3.620474 H         1 <1>         0.023588 
     70 H          -2.251583   -5.072194   -1.504817 H         1 <1>         0.023588 
     71 H          -3.966326   -4.765581   -1.252257 H         1 <1>         0.023588 
     72 H          -2.777076   -4.071149   -0.130766 H         1 <1>         0.023588 
     73 H          -0.704503    0.151117   -4.234525 H         1 <1>         0.023535 
     74 H          -1.951092   -1.051342   -4.475640 H         1 <1>         0.023535 
     75 H          -0.281237   -1.556211   -4.206749 H         1 <1>         0.023535 
     76 H          -0.349751   -2.239763    0.985145 H         1 <1>         0.023553 
     77 H           0.350533   -0.878108    1.678997 H         1 <1>         0.023553 
     78 H          -1.097308   -0.607963    0.784801 H         1 <1>         0.023553 
     79 O          -5.333063   -2.493385   -2.162785 O.3       1 <1>        -0.313762 
     80 H          -5.731370   -3.385188   -0.228697 H         1 <1>         0.136372 
@<TRIPOS>BOND
     1    2    1 1    
     2    1    6 1    
     3    1   35 1    
     4    1   36 1    
     5    2    3 1    
     6    2   37 1    
     7   79    2 1    
     8    3    4 1    
     9    3   31 1    
    10    3   32 1    
    11    4    5 1    
    12    4    7 1    
    13    4   38 1    
    14    6    5 1    
    15    5   10 1    
    16    5   33 1    
    17    6   39 1    
    18    6   40 1    
    19    7    8 1    
    20    7   41 1    
    21    7   42 1    
    22    8    9 1    
    23    8   43 1    
    24    8   44 1    
    25   10    9 1    
    26    9   11 1    
    27    9   34 1    
    28   10   14 1    
    29   10   45 1    
    30   11   12 1    
    31   11   15 1    
    32   11   27 1    
    33   13   12 2    
    34   12   18 1    
    35   14   13 1    
    36   13   46 1    
    37   14   29 2    
    38   15   16 1    
    39   15   47 1    
    40   15   48 1    
    41   16   17 1    
    42   16   49 1    
    43   16   50 1    
    44   18   17 1    
    45   17   19 1    
    46   17   28 1    
    47   18   22 1    
    48   18   51 1    
    49   19   20 1    
    50   19   25 1    
    51   19   52 1    
    52   21   20 1    
    53   20   53 1    
    54   20   54 1    
    55   22   21 1    
    56   21   23 1    
    57   21   24 1    
    58   22   55 1    
    59   22   56 1    
    60   25   23 1    
    61   23   26 2    
    62   24   57 1    
    63   24   58 1    
    64   24   59 1    
    65   27   60 1    
    66   27   61 1    
    67   27   62 1    
    68   28   63 1    
    69   28   64 1    
    70   28   65 1    
    71   30   66 2    
    72   30   79 1    
    73   30   80 1    
    74   31   67 1    
    75   31   68 1    
    76   31   69 1    
    77   32   70 1    
    78   32   71 1    
    79   32   72 1    
    80   33   73 1    
    81   33   74 1    
    82   33   75 1    
    83   34   76 1    
    84   34   77 1    
    85   34   78 1    
@<TRIPOS>SUBSTRUCTURE
     1 ****       30 TEMP              0 ****  ****    0 ROOT 
@<TRIPOS>NORMAL
@<TRIPOS>FF_PBC
FORCE_FIELD_SETUP_FEATURE Force Field Setup information
v1.0  0 0.000000 0.000000 0.000000 0.000000 0.000000 0.000000 NONE 0 0 0 0 1 0 0 0 0 0 0 0 0
