@<TRIPOS>MOLECULE
MOL001915
   73    77     1     1     0
SMALL
GASTEIGER


@<TRIPOS>ATOM
      1 C           1.286192   -0.856539    0.951463 C.2       1 <1>         0.123961 
      2 C           1.542208   -2.133148    0.619585 C.2       1 <1>         0.157590 
      3 C           0.409551   -3.021473    0.279947 C.2       1 <1>         0.223405 
      4 O           0.515846   -4.235834    0.229067 O.2       1 <1>        -0.284261 
      5 C          -0.926850   -2.377363    0.025721 C.ar      1 <1>         0.084563 
      6 C          -2.069808   -3.128579   -0.543436 C.ar      1 <1>         0.088410 
      7 O          -1.930701   -4.487861   -0.835429 O.3       1 <1>        -0.358954 
      8 C          -3.283956   -2.446349   -0.782952 C.ar      1 <1>        -0.000932 
      9 C          -3.415748   -1.003966   -0.470604 C.ar      1 <1>         0.084401 
     10 C          -2.315930   -0.313086    0.099397 C.ar      1 <1>        -0.000159 
     11 C          -1.041461   -1.027916    0.347883 C.ar      1 <1>         0.099010 
     12 O           0.043333   -0.337591    0.896247 O.3       1 <1>        -0.305122 
     13 C           2.393486    0.094826    1.359397 C.ar      1 <1>         0.008305 
     14 C           2.285485    1.504598    0.911835 C.ar      1 <1>        -0.049598 
     15 C           3.301357    2.423394    1.200744 C.ar      1 <1>        -0.031302 
     16 C           4.499151    2.008228    1.966231 C.ar      1 <1>         0.072619 
     17 O           5.504829    2.947002    2.217753 O.3       1 <1>        -0.359832 
     18 C           4.594672    0.670399    2.423619 C.ar      1 <1>        -0.031302 
     19 C           3.514260   -0.300441    2.124435 C.ar      1 <1>        -0.049598 
     20 O           2.819139   -2.572116    0.600324 O.3       1 <1>        -0.306082 
     21 C           3.189863   -3.325712   -0.578030 C.3       1 <1>         0.193914 
     22 C           4.664468   -3.800173   -0.502162 C.3       1 <1>         0.134513 
     23 O           4.864191   -4.636346    0.654309 O.3       1 <1>        -0.384091 
     24 C           5.604566   -2.572345   -0.465425 C.3       1 <1>         0.114074 
     25 O           6.967467   -3.042001   -0.494284 O.3       1 <1>        -0.386401 
     26 C           5.321627   -1.659373   -1.686504 C.3       1 <1>         0.111896 
     27 O           6.223935   -0.538615   -1.594357 O.3       1 <1>        -0.386488 
     28 C           3.819956   -1.263222   -1.673758 C.3       1 <1>         0.113017 
     29 O           3.009639   -2.462260   -1.722560 O.3       1 <1>        -0.340164 
     30 C           3.408310   -0.330831   -2.845833 C.3       1 <1>         0.073015 
     31 O           3.506667    1.066450   -2.504349 O.3       1 <1>        -0.392366 
     32 O          -4.634271   -0.377018   -0.757012 O.3       1 <1>        -0.312385 
     33 C          -4.823338    1.045032   -0.690903 C.3       1 <1>         0.193645 
     34 C          -6.243891    1.348079   -1.229169 C.3       1 <1>         0.134509 
     35 O          -6.319213    1.014663   -2.630205 O.3       1 <1>        -0.384091 
     36 C          -6.575830    2.846386   -1.029384 C.3       1 <1>         0.114074 
     37 O          -7.936369    3.073690   -1.444516 O.3       1 <1>        -0.386401 
     38 C          -6.386406    3.241995    0.454712 C.3       1 <1>         0.111896 
     39 O          -6.584033    4.665986    0.548878 O.3       1 <1>        -0.386488 
     40 C          -4.965403    2.831088    0.928602 C.3       1 <1>         0.113017 
     41 O          -4.719817    1.428728    0.692884 O.3       1 <1>        -0.340168 
     42 C          -4.820803    3.071364    2.452505 C.3       1 <1>         0.073015 
     43 O          -5.224412    4.415850    2.781753 O.3       1 <1>        -0.392366 
     44 H          -2.669669   -4.876550   -1.289644 H         1 <1>         0.217342 
     45 H          -4.138355   -2.971073   -1.199746 H         1 <1>         0.066933 
     46 H          -2.373664    0.736312    0.356393 H         1 <1>         0.066957 
     47 H           1.413347    1.827772    0.351011 H         1 <1>         0.062504 
     48 H           3.221408    3.450990    0.866073 H         1 <1>         0.064339 
     49 H           6.277112    2.590975    2.644770 H         1 <1>         0.217313 
     50 H           5.459147    0.344321    2.990625 H         1 <1>         0.064339 
     51 H           3.602483   -1.314223    2.499289 H         1 <1>         0.062504 
     52 H           2.608687   -4.249879   -0.717343 H         1 <1>         0.094163 
     53 H           4.890276   -4.380939   -1.414410 H         1 <1>         0.067108 
     54 H           5.771449   -4.918573    0.733377 H         1 <1>         0.210111 
     55 H           5.422631   -2.017488    0.470719 H         1 <1>         0.064758 
     56 H           7.583913   -2.314496   -0.486645 H         1 <1>         0.210005 
     57 H           5.535579   -2.244840   -2.598174 H         1 <1>         0.064673 
     58 H           6.267841   -0.013401   -2.386367 H         1 <1>         0.210004 
     59 H           3.625991   -0.691698   -0.757905 H         1 <1>         0.064668 
     60 H           3.964920   -0.571552   -3.764945 H         1 <1>         0.058370 
     61 H           2.338689   -0.493401   -3.052373 H         1 <1>         0.058370 
     62 H           4.382170    1.360601   -2.278847 H         1 <1>         0.209508 
     63 H          -4.080095    1.551691   -1.329960 H         1 <1>         0.094160 
     64 H          -6.959213    0.736141   -0.651475 H         1 <1>         0.067108 
     65 H          -7.182658    1.200356   -2.988849 H         1 <1>         0.210111 
     66 H          -5.887116    3.440429   -1.654493 H         1 <1>         0.064758 
     67 H          -8.195775    3.983619   -1.325690 H         1 <1>         0.210005 
     68 H          -7.142569    2.709093    1.056509 H         1 <1>         0.064673 
     69 H          -6.437030    4.987295    1.436114 H         1 <1>         0.210004 
     70 H          -4.224265    3.456015    0.402559 H         1 <1>         0.064668 
     71 H          -3.770119    2.894602    2.740126 H         1 <1>         0.058370 
     72 H          -5.454618    2.341563    2.984850 H         1 <1>         0.058370 
     73 H          -5.133597    4.606648    3.712299 H         1 <1>         0.209508 
@<TRIPOS>BOND
     1    1    2 2    
     2    1   12 1    
     3    1   13 1    
     4    2    3 1    
     5    2   20 1    
     6    3    4 2    
     7    3    5 1    
     8    5    6 1    
     9    5   11 2    
    10    6    7 1    
    11    6    8 2    
    12    7   44 1    
    13    8    9 1    
    14    8   45 1    
    15    9   10 2    
    16    9   32 1    
    17   10   11 1    
    18   10   46 1    
    19   11   12 1    
    20   13   14 1    
    21   13   19 2    
    22   14   15 2    
    23   14   47 1    
    24   15   16 1    
    25   15   48 1    
    26   16   17 1    
    27   16   18 2    
    28   17   49 1    
    29   18   19 1    
    30   18   50 1    
    31   19   51 1    
    32   20   21 1    
    33   21   22 1    
    34   21   29 1    
    35   21   52 1    
    36   22   23 1    
    37   22   24 1    
    38   22   53 1    
    39   23   54 1    
    40   24   25 1    
    41   24   26 1    
    42   24   55 1    
    43   25   56 1    
    44   26   27 1    
    45   26   28 1    
    46   26   57 1    
    47   27   58 1    
    48   28   29 1    
    49   28   30 1    
    50   28   59 1    
    51   30   31 1    
    52   30   60 1    
    53   30   61 1    
    54   31   62 1    
    55   32   33 1    
    56   33   34 1    
    57   33   41 1    
    58   33   63 1    
    59   34   35 1    
    60   34   36 1    
    61   34   64 1    
    62   35   65 1    
    63   36   37 1    
    64   36   38 1    
    65   36   66 1    
    66   37   67 1    
    67   38   39 1    
    68   38   40 1    
    69   38   68 1    
    70   39   69 1    
    71   40   41 1    
    72   40   42 1    
    73   40   70 1    
    74   42   43 1    
    75   42   71 1    
    76   42   72 1    
    77   43   73 1    
@<TRIPOS>SUBSTRUCTURE
     1 ****        1 TEMP              0 ****  ****    0 ROOT 
@<TRIPOS>NORMAL
@<TRIPOS>FF_PBC
FORCE_FIELD_SETUP_FEATURE Force Field Setup information
v1.0  0 0.000000 0.000000 0.000000 0.000000 0.000000 0.000000 NONE 0 0 0 0 1 0 0 0 0 0 0 0 0
