@<TRIPOS>MOLECULE
MOL000118
   29    29     1     1     0
SMALL
GASTEIGER


@<TRIPOS>ATOM
      1 C          -0.147545   -2.100249    2.153903 C.3       1 <1>        -0.036069 
      2 C          -0.396148   -0.769542    1.378628 C.3       1 <1>         0.063618 
      3 C          -1.694985   -0.137598    1.960684 C.3       1 <1>        -0.036069 
      4 O           0.736315    0.048113    1.720418 O.3       1 <1>        -0.388835 
      5 C          -0.493157   -1.042906   -0.168590 C.3       1 <1>        -0.008935 
      6 C           0.897434   -1.248609   -0.838029 C.3       1 <1>        -0.029079 
      7 C           1.594204    0.047560   -1.172506 C.2       1 <1>        -0.084672 
      8 C           0.964113    1.224615   -1.300080 C.2       1 <1>        -0.076509 
      9 C          -0.529549    1.367880   -1.123103 C.3       1 <1>        -0.031655 
     10 C          -1.258045    0.001788   -1.034500 C.3       1 <1>        -0.043659 
     11 C           1.710406    2.499208   -1.626450 C.3       1 <1>        -0.043787 
     12 H           0.771590   -2.604324    1.827009 H         1 <1>         0.025721 
     13 H          -0.989195   -2.797518    2.022515 H         1 <1>         0.025721 
     14 H          -0.038805   -1.896878    3.230514 H         1 <1>         0.025721 
     15 H          -1.870503    0.872327    1.567697 H         1 <1>         0.025721 
     16 H          -2.566699   -0.766424    1.723603 H         1 <1>         0.025721 
     17 H          -1.618723   -0.046459    3.054885 H         1 <1>         0.025721 
     18 H           0.695901    0.928524    1.370301 H         1 <1>         0.210147 
     19 H          -1.062510   -1.983402   -0.273507 H         1 <1>         0.033130 
     20 H           1.558409   -1.853961   -0.202520 H         1 <1>         0.031097 
     21 H           0.777421   -1.788867   -1.791220 H         1 <1>         0.031097 
     22 H           2.673694   -0.003847   -1.321555 H         1 <1>         0.057164 
     23 H          -0.717349    1.970880   -0.223687 H         1 <1>         0.030999 
     24 H          -0.943999    1.929285   -1.976756 H         1 <1>         0.030999 
     25 H          -2.296524    0.139687   -0.694304 H         1 <1>         0.027194 
     26 H          -1.317327   -0.402045   -2.060418 H         1 <1>         0.027194 
     27 H           2.798498    2.350295   -1.697065 H         1 <1>         0.027436 
     28 H           1.518270    3.246650   -0.842089 H         1 <1>         0.027436 
     29 H           1.355838    2.897289   -2.588974 H         1 <1>         0.027436 
@<TRIPOS>BOND
     1    1    2 1    
     2    1   12 1    
     3    1   13 1    
     4    1   14 1    
     5    2    3 1    
     6    2    4 1    
     7    2    5 1    
     8    3   15 1    
     9    3   16 1    
    10    3   17 1    
    11    4   18 1    
    12    5    6 1    
    13    5   10 1    
    14    5   19 1    
    15    6    7 1    
    16    6   20 1    
    17    6   21 1    
    18    7    8 2    
    19    7   22 1    
    20    8    9 1    
    21    8   11 1    
    22    9   10 1    
    23    9   23 1    
    24    9   24 1    
    25   10   25 1    
    26   10   26 1    
    27   11   27 1    
    28   11   28 1    
    29   11   29 1    
@<TRIPOS>SUBSTRUCTURE
     1 ****        1 TEMP              0 ****  ****    0 ROOT 
@<TRIPOS>NORMAL
@<TRIPOS>FF_PBC
FORCE_FIELD_SETUP_FEATURE Force Field Setup information
v1.0  0 0.000000 0.000000 0.000000 0.000000 0.000000 0.000000 NONE 0 0 0 0 1 0 0 0 0 0 0 0 0
