@<TRIPOS>MOLECULE
MOL012958
  144   152     1     1     0
SMALL
GASTEIGER


@<TRIPOS>ATOM
      1 O           4.637294    3.068693    1.877112 O.3       1 <1>        -0.347600 
      2 O           4.029413    4.569513    0.072028 O.3       1 <1>        -0.341853 
      3 O           0.468766    4.523640    0.526965 O.3       1 <1>        -0.385808 
      4 O           0.786829   -3.181445   -1.389587 O.3       1 <1>        -0.344881 
      5 O          -0.989276   -3.094072   -2.955119 O.3       1 <1>        -0.340512 
      6 O          -2.946414   -2.953342   -1.069368 O.3       1 <1>        -0.337750 
      7 O          -2.284191   -0.346165    0.059593 O.3       1 <1>        -0.340042 
      8 O          -1.384574    0.628744   -2.679816 O.3       1 <1>        -0.386478 
      9 O          -4.425054   -3.926875    0.487991 O.3       1 <1>        -0.343067 
     10 O           0.522782   -0.004357   -4.346834 O.3       1 <1>        -0.392366 
     11 O          -1.562747    1.497850    1.403896 O.3       1 <1>        -0.340520 
     12 O          -6.107965   -1.548376    0.243241 O.3       1 <1>        -0.384104 
     13 O          -3.194665    3.244659   -0.267116 O.3       1 <1>        -0.384104 
     14 O          -6.857043   -2.104018   -2.480561 O.3       1 <1>        -0.386402 
     15 O          -7.368221   -3.869810   -0.355292 O.3       1 <1>        -0.386579 
     16 O          -5.677840    2.251355    0.698220 O.3       1 <1>        -0.386401 
     17 O          -3.779336    3.406088    2.395368 O.3       1 <1>        -0.386488 
     18 O          -2.725069   -0.190902    4.430832 O.3       1 <1>        -0.392366 
     19 C           3.650101    1.118388    1.012244 C.3       1 <1>         0.008082 
     20 C           3.561062   -0.431900    0.756955 C.3       1 <1>        -0.020557 
     21 C           2.229691    1.702527    1.320272 C.3       1 <1>        -0.022168 
     22 C           2.392437    3.223415    1.093032 C.3       1 <1>         0.047510 
     23 C           2.837455   -1.118734    1.974193 C.3       1 <1>        -0.029356 
     24 C           3.866615    3.288919    0.685042 C.3       1 <1>         0.176775 
     25 C           4.146160    2.010525   -0.144583 C.3       1 <1>         0.010319 
     26 C           2.630462   -2.694772    1.815156 C.3       1 <1>        -0.025246 
     27 C           4.663267    1.643600    2.086855 C.3       1 <1>         0.057503 
     28 C           1.713325    1.176454    2.679632 C.3       1 <1>        -0.048815 
     29 C           1.566577   -0.362997    2.515777 C.3       1 <1>        -0.048911 
     30 C           4.974186   -1.097706    0.598977 C.3       1 <1>        -0.046476 
     31 C           3.600707   -3.351947    0.736591 C.3       1 <1>        -0.027836 
     32 C           1.661871    3.975977   -0.070148 C.3       1 <1>         0.097611 
     33 C           5.002778   -2.655673    0.740722 C.3       1 <1>        -0.048617 
     34 C           2.803901   -0.612890   -0.594186 C.3       1 <1>        -0.058701 
     35 C           2.759058    5.032364   -0.444013 C.3       1 <1>         0.094142 
     36 C           3.092005   -4.033168   -0.639168 C.3       1 <1>        -0.005230 
     37 C           1.150431   -3.085856    1.498623 C.3       1 <1>        -0.044721 
     38 C           2.904376   -3.326844    3.235632 C.3       1 <1>        -0.059019 
     39 C           1.524238   -4.238867   -0.689739 C.3       1 <1>         0.067174 
     40 C           0.998007   -4.436162    0.755618 C.3       1 <1>        -0.025470 
     41 C           1.205978    3.236203   -1.382124 C.3       1 <1>        -0.033167 
     42 C           2.505464    6.465246    0.117827 C.3       1 <1>        -0.005301 
     43 C           3.735067   -5.476790   -0.722383 C.3       1 <1>        -0.057181 
     44 C           3.573354   -3.358141   -1.984604 C.3       1 <1>        -0.057181 
     45 C           1.919667    7.420908   -0.906782 C.2       1 <1>        -0.082754 
     46 C          -0.639114   -3.383101   -1.589470 C.3       1 <1>         0.188605 
     47 C           1.091717    8.462779   -0.709260 C.2       1 <1>        -0.079535 
     48 C          -1.606917   -2.576947   -0.667917 C.3       1 <1>         0.140989 
     49 C          -1.400359   -1.046880   -0.864494 C.3       1 <1>         0.120942 
     50 C          -0.911799   -1.700253   -3.320756 C.3       1 <1>         0.113015 
     51 C           0.670502    9.295647   -1.903437 C.3       1 <1>        -0.044048 
     52 C           0.531963    8.912535    0.623682 C.3       1 <1>        -0.044048 
     53 C          -1.688840   -0.743201   -2.364847 C.3       1 <1>         0.112270 
     54 C           0.538399   -1.230687   -3.589586 C.3       1 <1>         0.073015 
     55 C          -3.985391   -2.694587   -0.103942 C.3       1 <1>         0.188431 
     56 C          -2.118775    1.090293    0.143162 C.3       1 <1>         0.188437 
     57 C          -5.154230   -1.931063   -0.767597 C.3       1 <1>         0.134123 
     58 C          -3.447817    1.829372   -0.145299 C.3       1 <1>         0.134124 
     59 C          -5.774111   -2.829673   -1.863685 C.3       1 <1>         0.113972 
     60 C          -5.067027   -4.829585   -0.434742 C.3       1 <1>         0.087307 
     61 C          -6.243413   -4.158843   -1.212419 C.3       1 <1>         0.109478 
     62 C          -4.459779    1.537096    0.990502 C.3       1 <1>         0.114061 
     63 C          -2.433959    1.317518    2.539848 C.3       1 <1>         0.113005 
     64 C          -3.841356    1.964666    2.350486 C.3       1 <1>         0.111896 
     65 C          -4.049673   -5.552353   -1.364102 C.3       1 <1>        -0.036060 
     66 C          -2.503656   -0.158760    3.008100 C.3       1 <1>         0.073015 
     67 H          -0.007002    5.119810   -0.040433 H         1 <1>         0.210274 
     68 H          -1.486236    0.841583   -3.602596 H         1 <1>         0.210004 
     69 H           1.396542    0.337064   -4.512280 H         1 <1>         0.209508 
     70 H          -6.892010   -1.172315   -0.145860 H         1 <1>         0.210110 
     71 H          -4.004756    3.742463   -0.335163 H         1 <1>         0.210110 
     72 H          -7.303720   -2.602747   -3.157841 H         1 <1>         0.210005 
     73 H          -7.748254   -4.637092    0.059625 H         1 <1>         0.210002 
     74 H          -6.350353    2.129515    1.360597 H         1 <1>         0.210005 
     75 H          -3.445548    3.750727    3.217466 H         1 <1>         0.210004 
     76 H          -2.736305   -1.077369    4.781135 H         1 <1>         0.209508 
     77 H           1.412161    1.443387    0.655231 H         1 <1>         0.031230 
     78 H           2.266095    3.784502    2.032965 H         1 <1>         0.038442 
     79 H           3.573155   -0.968155    2.781559 H         1 <1>         0.031156 
     80 H           5.215526    1.897559   -0.393145 H         1 <1>         0.032341 
     81 H           3.581377    1.905290   -1.069109 H         1 <1>         0.032341 
     82 H           5.714564    1.406539    1.862637 H         1 <1>         0.056658 
     83 H           4.506981    1.347259    3.133245 H         1 <1>         0.056658 
     84 H           0.727273    1.628819    2.896607 H         1 <1>         0.026833 
     85 H           2.350701    1.427666    3.537133 H         1 <1>         0.026833 
     86 H           1.249184   -0.774350    3.486502 H         1 <1>         0.026837 
     87 H           0.717907   -0.451555    1.831021 H         1 <1>         0.026837 
     88 H           5.452869   -0.797511   -0.345202 H         1 <1>         0.027088 
     89 H           5.644546   -0.729673    1.385403 H         1 <1>         0.027088 
     90 H           3.859570   -4.271374    1.277856 H         1 <1>         0.031210 
     91 H           5.486577   -2.875652    1.712330 H         1 <1>         0.026846 
     92 H           5.691239   -3.105014    0.004801 H         1 <1>         0.026846 
     93 H           2.321010   -1.576242   -0.562163 H         1 <1>         0.023534 
     94 H           2.006862    0.088734   -0.835050 H         1 <1>         0.023534 
     95 H           3.487222   -0.571758   -1.455708 H         1 <1>         0.023534 
     96 H           2.923633    5.089227   -1.531770 H         1 <1>         0.062876 
     97 H           0.516447   -3.088033    2.399889 H         1 <1>         0.027149 
     98 H           0.728737   -2.347058    0.823816 H         1 <1>         0.027149 
     99 H           3.946393   -3.184020    3.554808 H         1 <1>         0.023525 
    100 H           2.705769   -4.410280    3.253012 H         1 <1>         0.023525 
    101 H           2.263492   -2.877172    4.004612 H         1 <1>         0.023525 
    102 H           1.321425   -5.154761   -1.269717 H         1 <1>         0.060224 
    103 H          -0.057241   -4.746930    0.723091 H         1 <1>         0.029047 
    104 H           1.540236   -5.232117    1.286371 H         1 <1>         0.029047 
    105 H           0.554109    3.906967   -1.964099 H         1 <1>         0.025817 
    106 H           0.620248    2.334554   -1.188369 H         1 <1>         0.025817 
    107 H           2.013455    2.973725   -2.073881 H         1 <1>         0.025817 
    108 H           3.488951    6.899622    0.358271 H         1 <1>         0.033335 
    109 H           1.945901    6.395449    1.061292 H         1 <1>         0.033335 
    110 H           3.480498   -6.006752   -1.654326 H         1 <1>         0.023587 
    111 H           4.833026   -5.397728   -0.673378 H         1 <1>         0.023587 
    112 H           3.400713   -6.136115    0.093780 H         1 <1>         0.023587 
    113 H           4.529888   -2.828478   -1.897490 H         1 <1>         0.023587 
    114 H           2.850502   -2.664227   -2.419537 H         1 <1>         0.023587 
    115 H           3.713104   -4.089049   -2.793387 H         1 <1>         0.023587 
    116 H           2.227043    7.261555   -1.941218 H         1 <1>         0.057228 
    117 H          -0.913694   -4.447337   -1.507131 H         1 <1>         0.093760 
    118 H          -1.456071   -2.862799    0.382556 H         1 <1>         0.067487 
    119 H          -0.357530   -0.789621   -0.629913 H         1 <1>         0.065147 
    120 H          -1.403417   -1.654333   -4.308513 H         1 <1>         0.064668 
    121 H           0.110072   10.197484   -1.607184 H         1 <1>         0.027427 
    122 H           0.031835    8.690775   -2.565984 H         1 <1>         0.027427 
    123 H           1.562323    9.620709   -2.465056 H         1 <1>         0.027427 
    124 H           0.920919    8.359705    1.488167 H         1 <1>         0.027427 
    125 H          -0.564044    8.803411    0.601167 H         1 <1>         0.027427 
    126 H           0.776135    9.976991    0.776192 H         1 <1>         0.027427 
    127 H          -2.766808   -0.906884   -2.521695 H         1 <1>         0.064683 
    128 H           1.073725   -2.017597   -4.147828 H         1 <1>         0.058370 
    129 H           1.043724   -1.064539   -2.635244 H         1 <1>         0.058370 
    130 H          -3.661512   -2.093923    0.748803 H         1 <1>         0.093753 
    131 H          -1.393265    1.485264   -0.568813 H         1 <1>         0.093753 
    132 H          -4.768696   -1.012029   -1.237723 H         1 <1>         0.067095 
    133 H          -3.856185    1.459540   -1.102114 H         1 <1>         0.067095 
    134 H          -5.009300   -3.025803   -2.636130 H         1 <1>         0.064757 
    135 H          -5.487707   -5.612663    0.219692 H         1 <1>         0.062075 
    136 H          -6.589466   -4.835203   -2.012332 H         1 <1>         0.064584 
    137 H          -4.680371    0.457892    0.990246 H         1 <1>         0.064758 
    138 H          -1.916233    1.852796    3.353113 H         1 <1>         0.064668 
    139 H          -4.513278    1.627136    3.160004 H         1 <1>         0.064673 
    140 H          -4.528542   -6.422610   -1.837614 H         1 <1>         0.025536 
    141 H          -3.200896   -5.908072   -0.759924 H         1 <1>         0.025536 
    142 H          -3.657406   -4.919239   -2.168922 H         1 <1>         0.025536 
    143 H          -1.554962   -0.660136    2.756293 H         1 <1>         0.058370 
    144 H          -3.325382   -0.691872    2.518221 H         1 <1>         0.058370 
@<TRIPOS>BOND
     1    1   24 1    
     2   27    1 1    
     3   24    2 1    
     4    2   35 1    
     5   32    3 1    
     6    3   67 1    
     7    4   39 1    
     8   46    4 1    
     9   46    5 1    
    10   50    5 1    
    11   48    6 1    
    12    6   55 1    
    13    7   49 1    
    14   56    7 1    
    15   53    8 1    
    16    8   68 1    
    17   55    9 1    
    18    9   60 1    
    19   54   10 1    
    20   10   69 1    
    21   11   56 1    
    22   63   11 1    
    23   57   12 1    
    24   12   70 1    
    25   58   13 1    
    26   13   71 1    
    27   59   14 1    
    28   14   72 1    
    29   61   15 1    
    30   15   73 1    
    31   62   16 1    
    32   16   74 1    
    33   64   17 1    
    34   17   75 1    
    35   66   18 1    
    36   18   76 1    
    37   20   19 1    
    38   19   21 1    
    39   19   25 1    
    40   19   27 1    
    41   23   20 1    
    42   30   20 1    
    43   20   34 1    
    44   21   22 1    
    45   28   21 1    
    46   21   77 1    
    47   22   24 1    
    48   22   32 1    
    49   22   78 1    
    50   26   23 1    
    51   23   29 1    
    52   23   79 1    
    53   25   24 1    
    54   25   80 1    
    55   25   81 1    
    56   31   26 1    
    57   37   26 1    
    58   26   38 1    
    59   27   82 1    
    60   27   83 1    
    61   29   28 1    
    62   28   84 1    
    63   28   85 1    
    64   29   86 1    
    65   29   87 1    
    66   33   30 1    
    67   30   88 1    
    68   30   89 1    
    69   31   33 1    
    70   36   31 1    
    71   31   90 1    
    72   32   35 1    
    73   32   41 1    
    74   33   91 1    
    75   33   92 1    
    76   34   93 1    
    77   34   94 1    
    78   34   95 1    
    79   35   42 1    
    80   35   96 1    
    81   39   36 1    
    82   36   43 1    
    83   36   44 1    
    84   40   37 1    
    85   37   97 1    
    86   37   98 1    
    87   38   99 1    
    88   38  100 1    
    89   38  101 1    
    90   39   40 1    
    91   39  102 1    
    92   40  103 1    
    93   40  104 1    
    94   41  105 1    
    95   41  106 1    
    96   41  107 1    
    97   42   45 1    
    98   42  108 1    
    99   42  109 1    
   100   43  110 1    
   101   43  111 1    
   102   43  112 1    
   103   44  113 1    
   104   44  114 1    
   105   44  115 1    
   106   45   47 2    
   107   45  116 1    
   108   48   46 1    
   109   46  117 1    
   110   47   51 1    
   111   47   52 1    
   112   49   48 1    
   113   48  118 1    
   114   49   53 1    
   115   49  119 1    
   116   53   50 1    
   117   50   54 1    
   118   50  120 1    
   119   51  121 1    
   120   51  122 1    
   121   51  123 1    
   122   52  124 1    
   123   52  125 1    
   124   52  126 1    
   125   53  127 1    
   126   54  128 1    
   127   54  129 1    
   128   55   57 1    
   129   55  130 1    
   130   56   58 1    
   131   56  131 1    
   132   57   59 1    
   133   57  132 1    
   134   62   58 1    
   135   58  133 1    
   136   59   61 1    
   137   59  134 1    
   138   60   61 1    
   139   60   65 1    
   140   60  135 1    
   141   61  136 1    
   142   64   62 1    
   143   62  137 1    
   144   63   64 1    
   145   63   66 1    
   146   63  138 1    
   147   64  139 1    
   148   65  140 1    
   149   65  141 1    
   150   65  142 1    
   151   66  143 1    
   152   66  144 1    
@<TRIPOS>SUBSTRUCTURE
     1 ****       19 TEMP              0 ****  ****    0 ROOT 
@<TRIPOS>NORMAL
@<TRIPOS>FF_PBC
FORCE_FIELD_SETUP_FEATURE Force Field Setup information
v1.0  0 0.000000 0.000000 0.000000 0.000000 0.000000 0.000000 NONE 0 0 0 0 1 0 0 0 0 0 0 0 0
