@<TRIPOS>MOLECULE
MOL000875
   42    44     1     1     0
SMALL
GASTEIGER


@<TRIPOS>ATOM
      1 C           2.117133   -0.814957   -1.173105 C.3       1 <1>        -0.048942 
      2 C           2.928296    0.026591   -0.158149 C.3       1 <1>        -0.049663 
      3 C           2.091178    1.324166   -0.000248 C.3       1 <1>        -0.037928 
      4 C           0.624437    0.793321   -0.012173 C.3       1 <1>        -0.022889 
      5 C          -0.457204    1.828740   -0.455785 C.3       1 <1>        -0.044250 
      6 C          -1.870419    1.188031   -0.571383 C.3       1 <1>        -0.023464 
      7 C          -2.200840    0.203712    0.589420 C.3       1 <1>         0.066654 
      8 C          -0.954045   -0.658815    1.003129 C.3       1 <1>        -0.006458 
      9 C          -0.266031   -1.535286   -0.107375 C.3       1 <1>        -0.026112 
     10 C           0.615092   -0.494049   -0.891942 C.3       1 <1>        -0.029618 
     11 C           0.203046    0.288200    1.391747 C.3       1 <1>        -0.040915 
     12 O          -3.269222   -0.652386    0.142368 O.3       1 <1>        -0.388554 
     13 C           0.563066   -2.680590    0.575118 C.3       1 <1>        -0.059199 
     14 C          -1.267121   -2.283355   -1.045253 C.3       1 <1>        -0.059199 
     15 C          -2.791283    1.009134    1.790067 C.3       1 <1>        -0.035800 
     16 C           2.419564    2.328348   -1.142696 C.3       1 <1>        -0.061902 
     17 H           2.390933   -1.877828   -1.150624 H         1 <1>         0.026836 
     18 H           2.388163   -0.455065   -2.180386 H         1 <1>         0.026836 
     19 H           3.005392   -0.510411    0.798527 H         1 <1>         0.026811 
     20 H           3.957885    0.217789   -0.502383 H         1 <1>         0.026811 
     21 H           2.325555    1.825917    0.954651 H         1 <1>         0.030355 
     22 H          -0.474105    2.660713    0.266377 H         1 <1>         0.027166 
     23 H          -0.222940    2.254924   -1.443443 H         1 <1>         0.027166 
     24 H          -1.944564    0.656634   -1.528649 H         1 <1>         0.029300 
     25 H          -2.631826    1.983332   -0.624207 H         1 <1>         0.029300 
     26 H          -1.254477   -1.277072    1.864280 H         1 <1>         0.033381 
     27 H           0.155072   -0.283191   -1.870606 H         1 <1>         0.031147 
     28 H          -0.069329    1.104081    2.073253 H         1 <1>         0.027449 
     29 H           0.997047   -0.257071    1.914408 H         1 <1>         0.027449 
     30 H          -3.552101   -1.279552    0.799775 H         1 <1>         0.210159 
     31 H           0.956269   -3.394322   -0.164013 H         1 <1>         0.023517 
     32 H          -0.083963   -3.262924    1.248984 H         1 <1>         0.023517 
     33 H           1.416750   -2.331276    1.166783 H         1 <1>         0.023517 
     34 H          -1.916053   -2.948902   -0.455895 H         1 <1>         0.023517 
     35 H          -0.715877   -2.896344   -1.774732 H         1 <1>         0.023517 
     36 H          -1.909900   -1.618208   -1.631599 H         1 <1>         0.023517 
     37 H          -2.887725    0.371131    2.681412 H         1 <1>         0.025730 
     38 H          -2.194997    1.893174    2.053135 H         1 <1>         0.025730 
     39 H          -3.797608    1.369829    1.525679 H         1 <1>         0.025730 
     40 H           1.897083    3.283194   -0.977524 H         1 <1>         0.023259 
     41 H           3.498905    2.545661   -1.155345 H         1 <1>         0.023259 
     42 H           2.135139    1.936145   -2.129811 H         1 <1>         0.023259 
@<TRIPOS>BOND
     1    1    2 1    
     2    1   10 1    
     3    1   17 1    
     4    1   18 1    
     5    2    3 1    
     6    2   19 1    
     7    2   20 1    
     8    3    4 1    
     9    3   16 1    
    10    3   21 1    
    11    4    5 1    
    12    4   10 1    
    13    4   11 1    
    14    5    6 1    
    15    5   22 1    
    16    5   23 1    
    17    6    7 1    
    18    6   24 1    
    19    6   25 1    
    20    7    8 1    
    21    7   12 1    
    22    7   15 1    
    23    8    9 1    
    24    8   11 1    
    25    8   26 1    
    26    9   10 1    
    27    9   13 1    
    28    9   14 1    
    29   10   27 1    
    30   11   28 1    
    31   11   29 1    
    32   12   30 1    
    33   13   31 1    
    34   13   32 1    
    35   13   33 1    
    36   14   34 1    
    37   14   35 1    
    38   14   36 1    
    39   15   37 1    
    40   15   38 1    
    41   15   39 1    
    42   16   40 1    
    43   16   41 1    
    44   16   42 1    
@<TRIPOS>SUBSTRUCTURE
     1 ****        1 TEMP              0 ****  ****    0 ROOT 
@<TRIPOS>NORMAL
@<TRIPOS>FF_PBC
FORCE_FIELD_SETUP_FEATURE Force Field Setup information
v1.0  0 0.000000 0.000000 0.000000 0.000000 0.000000 0.000000 NONE 0 0 0 0 1 0 0 0 0 0 0 0 0
