@<TRIPOS>MOLECULE
MOL000207
   27    27     1     1     0
SMALL
GASTEIGER


@<TRIPOS>ATOM
      1 C           0.917825    0.225608   -0.440089 C.ar      1 <1>         0.105917 
      2 C           1.482900   -0.837081    0.431447 C.ar      1 <1>         0.105668 
      3 C          -0.470499    0.301052   -0.638376 C.ar      1 <1>        -0.025673 
      4 O           1.749904    1.155736   -1.067097 O.3       1 <1>        -0.345333 
      5 C           0.622096   -1.747692    1.068872 C.ar      1 <1>        -0.028882 
      6 O           2.861585   -0.945227    0.626675 O.3       1 <1>        -0.345341 
      7 C          -1.383827   -0.663917    0.020889 C.ar      1 <1>        -0.041049 
      8 C           2.353117    2.104774   -0.172883 C.3       1 <1>         0.043136 
      9 C          -0.843623   -1.663950    0.863989 C.ar      1 <1>        -0.055679 
     10 C           3.583720   -1.397907   -0.530363 C.3       1 <1>         0.043135 
     11 C          -2.891634   -0.553949   -0.223863 C.3       1 <1>        -0.009646 
     12 C          -3.410398    0.616940    0.572798 C.2       1 <1>        -0.086800 
     13 C          -3.959965    1.700805    0.010946 C.2       1 <1>        -0.102320 
     14 H          -0.873199    1.078048   -1.278831 H         1 <1>         0.064693 
     15 H           1.038075   -2.516514    1.710461 H         1 <1>         0.064420 
     16 H           2.969505    2.793130   -0.769037 H         1 <1>         0.052871 
     17 H           1.578036    2.686821    0.349420 H         1 <1>         0.052871 
     18 H           2.998364    1.611093    0.569433 H         1 <1>         0.052871 
     19 H          -1.493746   -2.374710    1.362643 H         1 <1>         0.062119 
     20 H           4.650041   -1.456285   -0.268616 H         1 <1>         0.052871 
     21 H           3.238268   -2.399524   -0.830976 H         1 <1>         0.052871 
     22 H           3.469480   -0.705722   -1.378555 H         1 <1>         0.052871 
     23 H          -3.062165   -0.429896   -1.304699 H         1 <1>         0.035544 
     24 H          -3.414567   -1.468504    0.095562 H         1 <1>         0.035544 
     25 H          -3.325655    0.567663    1.660167 H         1 <1>         0.056955 
     26 H          -4.320082    2.523019    0.629981 H         1 <1>         0.053184 
     27 H          -4.063651    1.796090   -1.069600 H         1 <1>         0.053184 
@<TRIPOS>BOND
     1    1    2 1    
     2    1    3 2    
     3    1    4 1    
     4    2    5 2    
     5    2    6 1    
     6    3    7 1    
     7    3   14 1    
     8    4    8 1    
     9    5    9 1    
    10    5   15 1    
    11    6   10 1    
    12    7    9 2    
    13    7   11 1    
    14    8   16 1    
    15    8   17 1    
    16    8   18 1    
    17    9   19 1    
    18   10   20 1    
    19   10   21 1    
    20   10   22 1    
    21   11   12 1    
    22   11   23 1    
    23   11   24 1    
    24   12   13 2    
    25   12   25 1    
    26   13   26 1    
    27   13   27 1    
@<TRIPOS>SUBSTRUCTURE
     1 ****        1 TEMP              0 ****  ****    0 ROOT 
@<TRIPOS>NORMAL
@<TRIPOS>FF_PBC
FORCE_FIELD_SETUP_FEATURE Force Field Setup information
v1.0  0 0.000000 0.000000 0.000000 0.000000 0.000000 0.000000 NONE 0 0 0 0 1 0 0 0 0 0 0 0 0
