@<TRIPOS>MOLECULE
MOL000420
   20    19     1     1     0
SMALL
GASTEIGER


@<TRIPOS>ATOM
      1 O          -1.381831   -1.195518    2.266844 O.2       1 <1>        -0.298200 
      2 C          -1.245408   -0.089132    1.767869 C.2       1 <1>         0.151209 
      3 C          -1.645022    0.193576    0.337466 C.3       1 <1>         0.138133 
      4 O          -2.060974   -1.018245   -0.325325 O.3       1 <1>        -0.381901 
      5 C          -0.496232    0.908634   -0.431663 C.3       1 <1>         0.115526 
      6 O           0.037397    1.951892    0.410288 O.3       1 <1>        -0.386155 
      7 C           0.589645   -0.075324   -0.962913 C.3       1 <1>         0.106814 
      8 O           0.011716   -0.853203   -2.032411 O.3       1 <1>        -0.386858 
      9 C           1.176260   -0.997940    0.138596 C.3       1 <1>         0.072662 
     10 O           1.636158   -0.200677    1.245672 O.3       1 <1>        -0.392376 
     11 H          -0.828161    0.699817    2.392832 H         1 <1>         0.105461 
     12 H          -2.505566    0.881002    0.405190 H         1 <1>         0.069683 
     13 H          -2.284451   -0.886968   -1.241737 H         1 <1>         0.210454 
     14 H          -0.940823    1.383373   -1.325293 H         1 <1>         0.065010 
     15 H           0.729329    2.461769    0.000273 H         1 <1>         0.210018 
     16 H           1.413614    0.534153   -1.374553 H         1 <1>         0.064301 
     17 H           0.628260   -1.450854   -2.444606 H         1 <1>         0.209989 
     18 H           2.020440   -1.568525   -0.284644 H         1 <1>         0.058361 
     19 H           0.408171   -1.722441    0.453451 H         1 <1>         0.058361 
     20 H           1.991735   -0.723291    1.958838 H         1 <1>         0.209508 
@<TRIPOS>BOND
     1    1    2 2    
     2    2    3 1    
     3    2   11 1    
     4    3    4 1    
     5    3    5 1    
     6    3   12 1    
     7    4   13 1    
     8    5    6 1    
     9    5    7 1    
    10    5   14 1    
    11    6   15 1    
    12    7    8 1    
    13    7    9 1    
    14    7   16 1    
    15    8   17 1    
    16    9   10 1    
    17    9   18 1    
    18    9   19 1    
    19   10   20 1    
@<TRIPOS>SUBSTRUCTURE
     1 ****        1 TEMP              0 ****  ****    0 ROOT 
@<TRIPOS>NORMAL
@<TRIPOS>FF_PBC
FORCE_FIELD_SETUP_FEATURE Force Field Setup information
v1.0  0 0.000000 0.000000 0.000000 0.000000 0.000000 0.000000 NONE 0 0 0 0 1 0 0 0 0 0 0 0 0
