@<TRIPOS>MOLECULE
MOL002911
   36    37     1     1     0
SMALL
GASTEIGER


@<TRIPOS>ATOM
      1 C           2.112761    1.964009    0.362466 C.2       1 <1>        -0.013462 
      2 C           2.578301    0.753865   -0.354483 C.2       1 <1>         0.191034 
      3 O           3.748032    0.691891   -0.703362 O.2       1 <1>        -0.287104 
      4 C           1.671021   -0.409534   -0.677596 C.ar      1 <1>         0.081337 
      5 C           1.847680   -1.688283    0.051849 C.ar      1 <1>         0.088296 
      6 C           0.934820   -2.742544   -0.156214 C.ar      1 <1>        -0.001303 
      7 C          -0.174548   -2.592692   -1.126767 C.ar      1 <1>         0.077503 
      8 C          -0.296308   -1.398751   -1.868590 C.ar      1 <1>        -0.001055 
      9 C           0.671918   -0.295530   -1.671826 C.ar      1 <1>         0.091518 
     10 C           0.964769    2.209378    1.018009 C.2       1 <1>        -0.046028 
     11 C          -0.162635    1.217010    1.208865 C.ar      1 <1>         0.034500 
     12 C          -1.538396    1.580516    0.790543 C.ar      1 <1>         0.082162 
     13 C          -2.565779    0.612946    0.854500 C.ar      1 <1>        -0.031197 
     14 C          -2.275878   -0.744253    1.371603 C.ar      1 <1>        -0.056861 
     15 C          -0.992644   -1.048585    1.848403 C.ar      1 <1>        -0.031197 
     16 C           0.086307   -0.027289    1.794468 C.ar      1 <1>         0.082162 
     17 O           0.605123    0.832978   -2.491918 O.3       1 <1>        -0.347036 
     18 C          -0.419762    1.798084   -2.231314 C.3       1 <1>         0.043055 
     19 O          -1.079919   -3.640072   -1.287327 O.3       1 <1>        -0.359667 
     20 O           2.918983   -1.835162    0.940760 O.3       1 <1>        -0.358956 
     21 O           1.350154   -0.284305    2.323844 O.3       1 <1>        -0.359161 
     22 O          -1.800397    2.880773    0.348181 O.3       1 <1>        -0.359161 
     23 H           2.834918    2.781538    0.332578 H         1 <1>         0.065606 
     24 H           1.032382   -3.675306    0.386519 H         1 <1>         0.066923 
     25 H          -1.101853   -1.270438   -2.584919 H         1 <1>         0.066931 
     26 H           0.800874    3.196038    1.448882 H         1 <1>         0.062620 
     27 H          -3.572666    0.855704    0.535154 H         1 <1>         0.064341 
     28 H          -3.058688   -1.497315    1.384659 H         1 <1>         0.061916 
     29 H          -0.792013   -2.037356    2.246213 H         1 <1>         0.064341 
     30 H          -1.402522    1.330572   -2.062551 H         1 <1>         0.052870 
     31 H          -0.130863    2.406253   -1.368165 H         1 <1>         0.052870 
     32 H          -0.487057    2.466111   -3.101342 H         1 <1>         0.052870 
     33 H          -1.445467   -3.675319   -2.164863 H         1 <1>         0.217316 
     34 H           3.141147   -2.736243    1.147523 H         1 <1>         0.217342 
     35 H           1.465438   -1.174789    2.634148 H         1 <1>         0.217339 
     36 H          -2.725823    3.091242    0.301623 H         1 <1>         0.217339 
@<TRIPOS>BOND
     1    1    2 1    
     2    1   10 2    
     3    1   23 1    
     4    2    3 2    
     5    2    4 1    
     6    4    5 1    
     7    4    9 2    
     8    5    6 2    
     9    5   20 1    
    10    6    7 1    
    11    6   24 1    
    12    7    8 2    
    13    7   19 1    
    14    8    9 1    
    15    8   25 1    
    16    9   17 1    
    17   10   11 1    
    18   10   26 1    
    19   11   12 1    
    20   11   16 2    
    21   12   13 2    
    22   12   22 1    
    23   13   14 1    
    24   13   27 1    
    25   14   15 2    
    26   14   28 1    
    27   15   16 1    
    28   15   29 1    
    29   16   21 1    
    30   17   18 1    
    31   18   30 1    
    32   18   31 1    
    33   18   32 1    
    34   19   33 1    
    35   20   34 1    
    36   21   35 1    
    37   22   36 1    
@<TRIPOS>SUBSTRUCTURE
     1 ****        1 TEMP              0 ****  ****    0 ROOT 
@<TRIPOS>NORMAL
@<TRIPOS>FF_PBC
FORCE_FIELD_SETUP_FEATURE Force Field Setup information
v1.0  0 0.000000 0.000000 0.000000 0.000000 0.000000 0.000000 NONE 0 0 0 0 1 0 0 0 0 0 0 0 0
