@<TRIPOS>MOLECULE
MOL004705
   32    33     1     1     0
SMALL
GASTEIGER


@<TRIPOS>ATOM
      1 O           2.488286    1.257015    0.094358 O.3       1 <1>        -0.274143 
      2 O          -3.253444    3.313802    0.177985 O.3       1 <1>        -0.388882 
      3 O          -0.911720    3.680326   -1.322174 O.3       1 <1>        -0.384407 
      4 O           2.200265    3.470682    0.170641 O.2       1 <1>        -0.259073 
      5 C          -2.148766    2.413068    0.383688 C.3       1 <1>         0.085679 
      6 C          -0.823952    3.134004    0.007704 C.3       1 <1>         0.111861 
      7 C          -2.295186    1.126765   -0.475739 C.3       1 <1>        -0.020013 
      8 C          -1.177345    0.103928   -0.126449 C.3       1 <1>        -0.022274 
      9 C           0.156582    0.799387   -0.030106 C.2       1 <1>        -0.005583 
     10 C           0.286395    2.121266    0.026889 C.2       1 <1>         0.060723 
     11 C           1.550325    0.300242    0.019303 C.2       1 <1>         0.086239 
     12 C           1.725851    2.349204    0.103834 C.2       1 <1>         0.297669 
     13 C           1.952614   -0.978649   -0.002693 C.2       1 <1>        -0.053069 
     14 C           1.069679   -2.202086   -0.064970 C.3       1 <1>        -0.032278 
     15 C           1.855360   -3.497275    0.277860 C.3       1 <1>        -0.052380 
     16 C           0.939065   -4.747594    0.220108 C.3       1 <1>        -0.064997 
     17 H           3.031600   -1.138704    0.024970 H         1 <1>         0.059779 
     18 H          -4.097978    2.934477    0.399396 H         1 <1>         0.209902 
     19 H          -0.124463    4.146570   -1.587735 H         1 <1>         0.210347 
     20 H          -2.110475    2.128875    1.451169 H         1 <1>         0.062249 
     21 H          -0.632716    3.939309    0.737959 H         1 <1>         0.067144 
     22 H          -2.230895    1.409144   -1.539405 H         1 <1>         0.029412 
     23 H          -3.280446    0.661557   -0.307438 H         1 <1>         0.029412 
     24 H          -1.164937   -0.685715   -0.892397 H         1 <1>         0.031491 
     25 H          -1.398423   -0.343650    0.855304 H         1 <1>         0.031491 
     26 H           0.244525   -2.107007    0.655283 H         1 <1>         0.030812 
     27 H           0.661786   -2.293200   -1.083796 H         1 <1>         0.030812 
     28 H           2.684144   -3.628314   -0.438404 H         1 <1>         0.026559 
     29 H           2.284186   -3.408414    1.290401 H         1 <1>         0.026559 
     30 H           1.516993   -5.652451    0.466493 H         1 <1>         0.022987 
     31 H           0.112327   -4.653868    0.941470 H         1 <1>         0.022987 
     32 H           0.515635   -4.866987   -0.789417 H         1 <1>         0.022987 
@<TRIPOS>BOND
     1   11    1 1    
     2    1   12 1    
     3    5    2 1    
     4    2   18 1    
     5    6    3 1    
     6    3   19 1    
     7   12    4 2    
     8    6    5 1    
     9    7    5 1    
    10    5   20 1    
    11   10    6 1    
    12    6   21 1    
    13    8    7 1    
    14    7   22 1    
    15    7   23 1    
    16    9    8 1    
    17    8   24 1    
    18    8   25 1    
    19    9   10 2    
    20    9   11 1    
    21   10   12 1    
    22   11   13 2    
    23   13   14 1    
    24   13   17 1    
    25   14   15 1    
    26   14   26 1    
    27   14   27 1    
    28   15   16 1    
    29   15   28 1    
    30   15   29 1    
    31   16   30 1    
    32   16   31 1    
    33   16   32 1    
@<TRIPOS>SUBSTRUCTURE
     1 ****        2 TEMP              0 ****  ****    0 ROOT 
@<TRIPOS>NORMAL
@<TRIPOS>FF_PBC
FORCE_FIELD_SETUP_FEATURE Force Field Setup information
v1.0  0 0.000000 0.000000 0.000000 0.000000 0.000000 0.000000 NONE 0 0 0 0 1 0 0 0 0 0 0 0 0
