@<TRIPOS>MOLECULE
MOL002131
   38    37     1     1     0
SMALL
GASTEIGER


@<TRIPOS>ATOM
      1 C           4.075227    2.695576   -2.565641 C.3       1 <1>        -0.062665 
      2 C           2.932714    1.816470   -1.978699 C.3       1 <1>        -0.046721 
      3 C           1.647419    2.671642   -1.733580 C.3       1 <1>        -0.050709 
      4 C           0.827859    2.286438   -0.464895 C.3       1 <1>        -0.052824 
      5 C           0.277478    0.834767   -0.466417 C.3       1 <1>        -0.053048 
      6 C          -0.681899    0.587816    0.731222 C.3       1 <1>        -0.053048 
      7 C          -1.227821   -0.867503    0.729696 C.3       1 <1>        -0.052824 
      8 C          -2.172752   -1.120292    1.938004 C.3       1 <1>        -0.050709 
      9 C          -2.893286   -2.502189    1.893360 C.3       1 <1>        -0.046721 
     10 C          -1.894747   -3.693754    1.902506 C.3       1 <1>        -0.062665 
     11 C          -3.868179   -2.625965    3.098555 C.3       1 <1>        -0.062665 
     12 C           2.674914    0.629696   -2.953812 C.3       1 <1>        -0.062665 
     13 H           4.348212    3.499758   -1.864210 H         1 <1>         0.023233 
     14 H           4.976344    2.090554   -2.752244 H         1 <1>         0.023233 
     15 H           3.757065    3.152352   -3.515658 H         1 <1>         0.023233 
     16 H           3.291520    1.418582   -1.013597 H         1 <1>         0.029548 
     17 H           1.935955    3.726478   -1.588961 H         1 <1>         0.026777 
     18 H           0.998669    2.637586   -2.623625 H         1 <1>         0.026777 
     19 H          -0.026490    2.981080   -0.393865 H         1 <1>         0.026537 
     20 H           1.452105    2.432050    0.432649 H         1 <1>         0.026537 
     21 H           1.115048    0.124264   -0.386513 H         1 <1>         0.026529 
     22 H          -0.264130    0.650021   -1.408401 H         1 <1>         0.026529 
     23 H          -1.527815    1.292299    0.671019 H         1 <1>         0.026529 
     24 H          -0.143671    0.775428    1.675144 H         1 <1>         0.026529 
     25 H          -0.370218   -1.556977    0.772262 H         1 <1>         0.026537 
     26 H          -1.776776   -1.048852   -0.208807 H         1 <1>         0.026537 
     27 H          -2.943094   -0.331585    1.943054 H         1 <1>         0.026777 
     28 H          -1.594941   -1.034815    2.872645 H         1 <1>         0.026777 
     29 H          -3.492253   -2.559515    0.967003 H         1 <1>         0.029548 
     30 H          -2.438806   -4.648588    1.970619 H         1 <1>         0.023233 
     31 H          -1.296817   -3.721773    0.979790 H         1 <1>         0.023233 
     32 H          -1.214973   -3.617630    2.764877 H         1 <1>         0.023233 
     33 H          -4.420844   -3.577489    3.055120 H         1 <1>         0.023233 
     34 H          -4.602432   -1.805334    3.090595 H         1 <1>         0.023233 
     35 H          -3.311517   -2.588541    4.047632 H         1 <1>         0.023233 
     36 H           1.868285   -0.029180   -2.608603 H         1 <1>         0.023233 
     37 H           3.585362    0.018961   -3.057820 H         1 <1>         0.023233 
     38 H           2.399288    1.008164   -3.950206 H         1 <1>         0.023233 
@<TRIPOS>BOND
     1    1    2 1    
     2    1   13 1    
     3    1   14 1    
     4    1   15 1    
     5    2    3 1    
     6    2   12 1    
     7    2   16 1    
     8    3    4 1    
     9    3   17 1    
    10    3   18 1    
    11    4    5 1    
    12    4   19 1    
    13    4   20 1    
    14    5    6 1    
    15    5   21 1    
    16    5   22 1    
    17    6    7 1    
    18    6   23 1    
    19    6   24 1    
    20    7    8 1    
    21    7   25 1    
    22    7   26 1    
    23    8    9 1    
    24    8   27 1    
    25    8   28 1    
    26    9   10 1    
    27    9   11 1    
    28    9   29 1    
    29   10   30 1    
    30   10   31 1    
    31   10   32 1    
    32   11   33 1    
    33   11   34 1    
    34   11   35 1    
    35   12   36 1    
    36   12   37 1    
    37   12   38 1    
@<TRIPOS>SUBSTRUCTURE
     1 ****        1 TEMP              0 ****  ****    0 ROOT 
@<TRIPOS>NORMAL
@<TRIPOS>FF_PBC
FORCE_FIELD_SETUP_FEATURE Force Field Setup information
v1.0  0 0.000000 0.000000 0.000000 0.000000 0.000000 0.000000 NONE 0 0 0 0 1 0 0 0 0 0 0 0 0
