@<TRIPOS>MOLECULE
MOL000635
   19    19     1     1     0
SMALL
GASTEIGER


@<TRIPOS>ATOM
      1 C           1.133138    3.064681   -0.335150 C.2       1 <1>         0.150281 
      2 C           0.337819    1.795922   -0.118194 C.ar      1 <1>         0.016777 
      3 C           1.022610    0.561370    0.335826 C.ar      1 <1>        -0.018951 
      4 C           0.301561   -0.623512    0.541772 C.ar      1 <1>         0.106056 
      5 C          -1.166322   -0.654941    0.312816 C.ar      1 <1>         0.102473 
      6 C          -1.821271    0.522076   -0.123867 C.ar      1 <1>        -0.028745 
      7 C          -1.051639    1.769971   -0.343116 C.ar      1 <1>        -0.048947 
      8 O           0.585805    4.086315   -0.716726 O.2       1 <1>        -0.295699 
      9 O           0.979693   -1.767754    0.966548 O.3       1 <1>        -0.345330 
     10 C           1.102321   -2.792573   -0.032915 C.3       1 <1>         0.043136 
     11 O          -1.878863   -1.839647    0.531204 O.3       1 <1>        -0.357268 
     12 H           2.206899    3.084324   -0.153158 H         1 <1>         0.108139 
     13 H           2.092655    0.563877    0.512144 H         1 <1>         0.065099 
     14 H          -2.891460    0.524059   -0.301649 H         1 <1>         0.064422 
     15 H          -1.567528    2.664230   -0.677815 H         1 <1>         0.062522 
     16 H           1.667237   -3.629541    0.403072 H         1 <1>         0.052871 
     17 H           1.651839   -2.413967   -0.908795 H         1 <1>         0.052871 
     18 H           0.118247   -3.165218   -0.354959 H         1 <1>         0.052871 
     19 H          -2.822443   -1.749973    0.463161 H         1 <1>         0.217422 
@<TRIPOS>BOND
     1    1    2 1    
     2    1    8 2    
     3    1   12 1    
     4    2    3 1    
     5    2    7 2    
     6    3    4 2    
     7    3   13 1    
     8    4    5 1    
     9    4    9 1    
    10    5    6 2    
    11    5   11 1    
    12    6    7 1    
    13    6   14 1    
    14    7   15 1    
    15    9   10 1    
    16   10   16 1    
    17   10   17 1    
    18   10   18 1    
    19   11   19 1    
@<TRIPOS>SUBSTRUCTURE
     1 ****        1 TEMP              0 ****  ****    0 ROOT 
@<TRIPOS>NORMAL
@<TRIPOS>FF_PBC
FORCE_FIELD_SETUP_FEATURE Force Field Setup information
v1.0  0 0.000000 0.000000 0.000000 0.000000 0.000000 0.000000 NONE 0 0 0 0 1 0 0 0 0 0 0 0 0
