@<TRIPOS>MOLECULE
MOL000579
   14    14     1     1     0
SMALL
GASTEIGER


@<TRIPOS>ATOM
      1 O           2.205243   -1.185252    1.367625 O.3       1 <1>        -0.359831 
      2 C           1.114572   -0.634239    0.690125 C.ar      1 <1>         0.072739 
      3 C           0.138065   -1.538301    0.039465 C.ar      1 <1>        -0.029510 
      4 C           0.923138    0.766576    0.612340 C.ar      1 <1>        -0.029510 
      5 C          -0.967890   -1.014568   -0.648659 C.ar      1 <1>        -0.029510 
      6 C          -0.245042    1.319716   -0.114489 C.ar      1 <1>        -0.029510 
      7 C          -1.174532    0.449751   -0.734140 C.ar      1 <1>         0.072739 
      8 O          -2.284659    0.940874   -1.425958 O.3       1 <1>        -0.359831 
      9 H           2.788279   -0.544751    1.759139 H         1 <1>         0.217313 
     10 H           0.286109   -2.611179    0.099963 H         1 <1>         0.064400 
     11 H           1.625870    1.446804    1.081525 H         1 <1>         0.064400 
     12 H          -1.680900   -1.679703   -1.123912 H         1 <1>         0.064400 
     13 H          -0.377090    2.395221   -0.164692 H         1 <1>         0.064400 
     14 H          -2.351264    1.888953   -1.438531 H         1 <1>         0.217313 
@<TRIPOS>BOND
     1    1    2 1    
     2    1    9 1    
     3    2    3 1    
     4    2    4 2    
     5    3    5 2    
     6    3   10 1    
     7    4    6 1    
     8    4   11 1    
     9    5    7 1    
    10    5   12 1    
    11    6    7 2    
    12    6   13 1    
    13    7    8 1    
    14    8   14 1    
@<TRIPOS>SUBSTRUCTURE
     1 ****        1 TEMP              0 ****  ****    0 ROOT 
@<TRIPOS>NORMAL
@<TRIPOS>FF_PBC
FORCE_FIELD_SETUP_FEATURE Force Field Setup information
v1.0  0 0.000000 0.000000 0.000000 0.000000 0.000000 0.000000 NONE 0 0 0 0 1 0 0 0 0 0 0 0 0
