@<TRIPOS>MOLECULE
MOL001245
   25    26     1     1     0
SMALL
GASTEIGER


@<TRIPOS>ATOM
      1 C          -0.065739    0.874944   -0.575327 C.3       1 <1>        -0.007446 
      2 C          -1.478847    0.328746   -0.526446 C.2       1 <1>        -0.008487 
      3 C          -1.609526   -1.006237   -0.450028 C.2       1 <1>        -0.077234 
      4 C          -0.372725   -1.883731   -0.392298 C.3       1 <1>        -0.030745 
      5 C           0.899931   -0.990201   -0.459289 C.3       1 <1>        -0.031320 
      6 C           0.796110    0.206233    0.530811 C.3       1 <1>        -0.024864 
      7 C           0.670306    0.005274   -1.628488 C.3       1 <1>        -0.041991 
      8 C          -2.644661    1.232981   -0.566851 C.2       1 <1>         0.146237 
      9 O          -2.491772    2.441829   -0.633045 O.2       1 <1>        -0.296034 
     10 C           2.163478    0.924086    0.753984 C.3       1 <1>        -0.058996 
     11 C           0.127545   -0.034656    1.919627 C.3       1 <1>        -0.058996 
     12 H           0.034885    1.965888   -0.688517 H         1 <1>         0.035506 
     13 H          -2.592548   -1.477289   -0.421449 H         1 <1>         0.057585 
     14 H          -0.364714   -2.481282    0.532279 H         1 <1>         0.031035 
     15 H          -0.378264   -2.576499   -1.248531 H         1 <1>         0.031035 
     16 H           1.853770   -1.542338   -0.465621 H         1 <1>         0.030926 
     17 H           1.594057    0.461790   -2.014968 H         1 <1>         0.027417 
     18 H           0.064163   -0.355135   -2.476495 H         1 <1>         0.027417 
     19 H          -3.660374    0.840364   -0.537936 H         1 <1>         0.107802 
     20 H           2.798463    0.303632    1.404412 H         1 <1>         0.023525 
     21 H           1.993651    1.890106    1.253181 H         1 <1>         0.023525 
     22 H           2.729558    1.123204   -0.165248 H         1 <1>         0.023525 
     23 H          -0.875927   -0.476698    1.894774 H         1 <1>         0.023525 
     24 H           0.039702    0.926745    2.447650 H         1 <1>         0.023525 
     25 H           0.769576   -0.701655    2.514418 H         1 <1>         0.023525 
@<TRIPOS>BOND
     1    1    2 1    
     2    1    6 1    
     3    1    7 1    
     4    1   12 1    
     5    2    3 2    
     6    2    8 1    
     7    3    4 1    
     8    3   13 1    
     9    4    5 1    
    10    4   14 1    
    11    4   15 1    
    12    5    6 1    
    13    5    7 1    
    14    5   16 1    
    15    6   10 1    
    16    6   11 1    
    17    7   17 1    
    18    7   18 1    
    19    8    9 2    
    20    8   19 1    
    21   10   20 1    
    22   10   21 1    
    23   10   22 1    
    24   11   23 1    
    25   11   24 1    
    26   11   25 1    
@<TRIPOS>SUBSTRUCTURE
     1 ****        1 TEMP              0 ****  ****    0 ROOT 
@<TRIPOS>NORMAL
@<TRIPOS>FF_PBC
FORCE_FIELD_SETUP_FEATURE Force Field Setup information
v1.0  0 0.000000 0.000000 0.000000 0.000000 0.000000 0.000000 NONE 0 0 0 0 1 0 0 0 0 0 0 0 0
