@<TRIPOS>MOLECULE
MOL004587
   21    20     1     1     0
SMALL
GASTEIGER


@<TRIPOS>ATOM
      1 O          -4.219003   -1.589767    0.000135 O.3       1 <1>        -0.327936 
      2 O          -2.900047   -3.341086    0.000021 O.2       1 <1>        -0.260093 
      3 C           0.636661    0.538919    0.000007 C.3       1 <1>        -0.049853 
      4 C           2.033543    1.219017   -0.000065 C.3       1 <1>        -0.055633 
      5 C           0.760220   -1.009602   -0.000147 C.3       1 <1>        -0.034296 
      6 C           1.907537    2.764989    0.000108 C.3       1 <1>        -0.065267 
      7 C          -0.534376   -1.795431   -0.000104 C.2       1 <1>        -0.078363 
      8 C          -1.773377   -1.281100    0.000032 C.2       1 <1>         0.005826 
      9 C          -2.993202   -2.125072    0.000063 C.2       1 <1>         0.283708 
     10 H          -0.426303   -2.881782   -0.000195 H         1 <1>         0.057383 
     11 H          -1.919505   -0.203736    0.000124 H         1 <1>         0.067395 
     12 H          -4.238806   -0.640852    0.000156 H         1 <1>         0.220537 
     13 H           0.084683    0.863483    0.897514 H         1 <1>         0.026813 
     14 H           0.084517    0.863651   -0.897337 H         1 <1>         0.026813 
     15 H           2.598789    0.904981   -0.893546 H         1 <1>         0.026274 
     16 H           2.598973    0.904797    0.893235 H         1 <1>         0.026274 
     17 H           1.331449   -1.315651   -0.891577 H         1 <1>         0.030743 
     18 H           1.331609   -1.315814    0.891123 H         1 <1>         0.030743 
     19 H           2.907599    3.226856    0.000042 H         1 <1>         0.022978 
     20 H           1.364570    3.106558    0.895199 H         1 <1>         0.022978 
     21 H           1.364368    3.106743   -0.894789 H         1 <1>         0.022978 
@<TRIPOS>BOND
     1    9    1 1    
     2    1   12 1    
     3    9    2 2    
     4    3    4 1    
     5    5    3 1    
     6    3   13 1    
     7    3   14 1    
     8    4    6 1    
     9    4   15 1    
    10    4   16 1    
    11    7    5 1    
    12    5   17 1    
    13    5   18 1    
    14    6   19 1    
    15    6   20 1    
    16    6   21 1    
    17    8    7 2    
    18    7   10 1    
    19    8    9 1    
    20    8   11 1    
@<TRIPOS>SUBSTRUCTURE
     1 ****        3 TEMP              0 ****  ****    0 ROOT 
@<TRIPOS>NORMAL
@<TRIPOS>FF_PBC
FORCE_FIELD_SETUP_FEATURE Force Field Setup information
v1.0  0 0.000000 0.000000 0.000000 0.000000 0.000000 0.000000 NONE 0 0 0 0 1 0 0 0 0 0 0 0 0
