@<TRIPOS>MOLECULE
MOL001644
   37    36     1     1     0
SMALL
GASTEIGER


@<TRIPOS>ATOM
      1 C          -3.268160   -6.047869   -0.000063 C.3       1 <1>        -0.065276 
      2 C          -2.191861   -3.722021   -0.000021 C.3       1 <1>        -0.053306 
      3 C          -1.935874   -5.253870    0.000063 C.3       1 <1>        -0.055911 
      4 C          -1.114571   -1.393142    0.000058 C.3       1 <1>        -0.053057 
      5 C          -0.858470   -2.925220   -0.000031 C.3       1 <1>        -0.053065 
      6 C          -0.038048    0.935906    0.000113 C.3       1 <1>        -0.053057 
      7 C           0.218705   -0.596146   -0.000070 C.3       1 <1>        -0.053057 
      8 C           1.040456    3.265285    0.000094 C.3       1 <1>        -0.052682 
      9 C           1.295194    1.732927   -0.000012 C.3       1 <1>        -0.053046 
     10 C           2.127922    5.591600   -0.000019 C.3       1 <1>         0.002777 
     11 C           2.375948    4.058617    0.000054 C.3       1 <1>        -0.046641 
     12 H           3.380262    7.476139   -0.000093 H         1 <1>         0.102608 
     13 C           3.409638    6.386473   -0.000017 C.2       1 <1>         0.120308 
     14 O           4.497079    5.832542    0.000083 O.2       1 <1>        -0.301035 
     15 H          -3.064477   -7.130413    0.000052 H         1 <1>         0.022978 
     16 H          -3.861105   -5.803418   -0.895212 H         1 <1>         0.022978 
     17 H          -3.861361   -5.803264    0.894855 H         1 <1>         0.022978 
     18 H          -2.778585   -3.451662   -0.893429 H         1 <1>         0.026520 
     19 H          -2.778631   -3.451588    0.893279 H         1 <1>         0.026520 
     20 H          -1.351684   -5.530673    0.893591 H         1 <1>         0.026265 
     21 H          -1.351471   -5.530756   -0.893346 H         1 <1>         0.026265 
     22 H          -1.700864   -1.121907    0.893453 H         1 <1>         0.026528 
     23 H          -1.701080   -1.121818   -0.893194 H         1 <1>         0.026528 
     24 H          -0.272195   -3.196587   -0.893421 H         1 <1>         0.026528 
     25 H          -0.272133   -3.196666    0.893250 H         1 <1>         0.026528 
     26 H          -0.624392    1.206795    0.893612 H         1 <1>         0.026528 
     27 H          -0.624671    1.206961   -0.893145 H         1 <1>         0.026528 
     28 H           0.805048   -0.867264   -0.893480 H         1 <1>         0.026528 
     29 H           0.805321   -0.867432    0.893104 H         1 <1>         0.026528 
     30 H           0.454627    3.537324    0.893529 H         1 <1>         0.026539 
     31 H           0.454502    3.537406   -0.893270 H         1 <1>         0.026539 
     32 H           1.881370    1.461361   -0.893396 H         1 <1>         0.026529 
     33 H           1.881594    1.461274    0.893194 H         1 <1>         0.026529 
     34 H           1.548173    5.871907   -0.893761 H         1 <1>         0.033871 
     35 H           1.548113    5.871975    0.893625 H         1 <1>         0.033871 
     36 H           2.962791    3.788699    0.893781 H         1 <1>         0.026918 
     37 H           2.962792    3.788628   -0.893707 H         1 <1>         0.026918 
@<TRIPOS>BOND
     1    1    3 1    
     2    1   15 1    
     3    1   16 1    
     4    1   17 1    
     5    3    2 1    
     6    2    5 1    
     7    2   18 1    
     8    2   19 1    
     9    3   20 1    
    10    3   21 1    
    11    5    4 1    
    12    4    7 1    
    13    4   22 1    
    14    4   23 1    
    15    5   24 1    
    16    5   25 1    
    17    7    6 1    
    18    6    9 1    
    19    6   26 1    
    20    6   27 1    
    21    7   28 1    
    22    7   29 1    
    23    9    8 1    
    24    8   11 1    
    25    8   30 1    
    26    8   31 1    
    27    9   32 1    
    28    9   33 1    
    29   11   10 1    
    30   10   13 1    
    31   10   34 1    
    32   10   35 1    
    33   11   36 1    
    34   11   37 1    
    35   13   12 1    
    36   13   14 2    
@<TRIPOS>SUBSTRUCTURE
     1 ****        1 TEMP              0 ****  ****    0 ROOT 
@<TRIPOS>NORMAL
@<TRIPOS>FF_PBC
FORCE_FIELD_SETUP_FEATURE Force Field Setup information
v1.0  0 0.000000 0.000000 0.000000 0.000000 0.000000 0.000000 NONE 0 0 0 0 1 0 0 0 0 0 0 0 0
