@<TRIPOS>MOLECULE
MOL001218
   39    38     1     1     0
SMALL
GASTEIGER


@<TRIPOS>ATOM
      1 C          -6.819890    0.449329    0.000123 C.3       1 <1>         0.044206 
      2 C          -5.538206   -0.421392   -0.000119 C.3       1 <1>        -0.029718 
      3 C          -4.252832    0.450694    0.000124 C.3       1 <1>        -0.050987 
      4 C          -2.972266   -0.428552   -0.000123 C.3       1 <1>        -0.052986 
      5 C          -1.686984    0.444047    0.000123 C.3       1 <1>        -0.053056 
      6 C          -0.404904   -0.433173   -0.000125 C.3       1 <1>        -0.053057 
      7 C           0.879414    0.440965    0.000122 C.3       1 <1>        -0.053057 
      8 C           2.162090   -0.435466   -0.000125 C.3       1 <1>        -0.053057 
      9 C           3.446479    0.438538    0.000124 C.3       1 <1>        -0.053065 
     10 C           4.728922   -0.438225   -0.000122 C.3       1 <1>        -0.053306 
     11 C           6.013052    0.435576    0.000127 C.3       1 <1>        -0.055911 
     12 C           7.292643   -0.441047   -0.000115 C.3       1 <1>        -0.065276 
     13 O          -7.962208   -0.425808   -0.000119 O.3       1 <1>        -0.395007 
     14 H          -6.831594    1.091210    0.897859 H         1 <1>         0.055696 
     15 H          -6.831595    1.091699   -0.897262 H         1 <1>         0.055696 
     16 H          -5.550468   -1.067695   -0.893132 H         1 <1>         0.028724 
     17 H          -5.550468   -1.068182    0.892540 H         1 <1>         0.028724 
     18 H          -4.251330    1.096352    0.893762 H         1 <1>         0.026599 
     19 H          -4.251331    1.096840   -0.893160 H         1 <1>         0.026599 
     20 H          -2.974282   -1.074477   -0.893606 H         1 <1>         0.026529 
     21 H          -2.974282   -1.074968    0.893004 H         1 <1>         0.026529 
     22 H          -1.685668    1.089928    0.893601 H         1 <1>         0.026528 
     23 H          -1.685668    1.090420   -0.892997 H         1 <1>         0.026528 
     24 H          -0.405828   -1.079094   -0.893593 H         1 <1>         0.026528 
     25 H          -0.405829   -1.079588    0.892985 H         1 <1>         0.026528 
     26 H           0.880057    1.086910    0.893560 H         1 <1>         0.026528 
     27 H           0.880058    1.087404   -0.892956 H         1 <1>         0.026528 
     28 H           2.161406   -1.081350   -0.893587 H         1 <1>         0.026528 
     29 H           2.161405   -1.081844    0.892978 H         1 <1>         0.026528 
     30 H           3.447452    1.084414    0.893592 H         1 <1>         0.026528 
     31 H           3.447455    1.084908   -0.892985 H         1 <1>         0.026528 
     32 H           4.729235   -1.084040   -0.893642 H         1 <1>         0.026520 
     33 H           4.729231   -1.084535    0.893039 H         1 <1>         0.026520 
     34 H           6.019883    1.081804    0.893797 H         1 <1>         0.026265 
     35 H           6.019886    1.082300   -0.893182 H         1 <1>         0.026265 
     36 H           8.190021    0.197868    0.000065 H         1 <1>         0.022978 
     37 H           7.319508   -1.081792   -0.895321 H         1 <1>         0.022978 
     38 H           7.319502   -1.082290    0.894733 H         1 <1>         0.022978 
     39 H          -8.792164    0.042011    0.000012 H         1 <1>         0.209395 
@<TRIPOS>BOND
     1    1    2 1    
     2    1   13 1    
     3    1   14 1    
     4    1   15 1    
     5    2    3 1    
     6    2   16 1    
     7    2   17 1    
     8    3    4 1    
     9    3   18 1    
    10    3   19 1    
    11    4    5 1    
    12    4   20 1    
    13    4   21 1    
    14    5    6 1    
    15    5   22 1    
    16    5   23 1    
    17    6    7 1    
    18    6   24 1    
    19    6   25 1    
    20    7    8 1    
    21    7   26 1    
    22    7   27 1    
    23    8    9 1    
    24    8   28 1    
    25    8   29 1    
    26    9   10 1    
    27    9   30 1    
    28    9   31 1    
    29   10   11 1    
    30   10   32 1    
    31   10   33 1    
    32   11   12 1    
    33   11   34 1    
    34   11   35 1    
    35   12   36 1    
    36   12   37 1    
    37   12   38 1    
    38   13   39 1    
@<TRIPOS>SUBSTRUCTURE
     1 ****        1 TEMP              0 ****  ****    0 ROOT 
@<TRIPOS>NORMAL
@<TRIPOS>FF_PBC
FORCE_FIELD_SETUP_FEATURE Force Field Setup information
v1.0  0 0.000000 0.000000 0.000000 0.000000 0.000000 0.000000 NONE 0 0 0 0 1 0 0 0 0 0 0 0 0
