@<TRIPOS>MOLECULE
MOL004691
   20    19     1     1     0
SMALL
GASTEIGER


@<TRIPOS>ATOM
      1 O          -3.185911    0.447786   -0.233961 O.3       1 <1>        -0.392376 
      2 C          -1.927324   -0.140485    0.148725 C.3       1 <1>         0.072662 
      3 C          -0.822558    0.311610   -0.843007 C.3       1 <1>         0.106814 
      4 O          -0.520067    1.701909   -0.617388 O.3       1 <1>        -0.386858 
      5 C           0.475042   -0.545090   -0.753337 C.3       1 <1>         0.115526 
      6 O           1.432349    0.035719   -1.661157 O.3       1 <1>        -0.386155 
      7 C           1.088271   -0.613500    0.672955 C.3       1 <1>         0.138133 
      8 O           2.335297   -1.330685    0.571455 O.3       1 <1>        -0.381901 
      9 C           1.331845    0.770912    1.217427 C.2       1 <1>         0.151209 
     10 O           0.822210    1.118663    2.271089 O.2       1 <1>        -0.298200 
     11 H          -3.902703    0.222829    0.352260 H         1 <1>         0.209508 
     12 H          -1.654981    0.183752    1.167068 H         1 <1>         0.058361 
     13 H          -2.020982   -1.239518    0.129505 H         1 <1>         0.058361 
     14 H          -1.232593    0.196228   -1.862874 H         1 <1>         0.064301 
     15 H           0.120792    2.030329   -1.242146 H         1 <1>         0.209989 
     16 H           0.247580   -1.576347   -1.079072 H         1 <1>         0.065010 
     17 H           2.256642   -0.444298   -1.664537 H         1 <1>         0.210018 
     18 H           0.409201   -1.165173    1.345760 H         1 <1>         0.069683 
     19 H           2.778078   -1.428560    1.409986 H         1 <1>         0.210454 
     20 H           1.970012    1.464020    0.671249 H         1 <1>         0.105461 
@<TRIPOS>BOND
     1    1    2 1    
     2    1   11 1    
     3    2    3 1    
     4    2   12 1    
     5    2   13 1    
     6    3    4 1    
     7    3    5 1    
     8    3   14 1    
     9    4   15 1    
    10    5    6 1    
    11    5    7 1    
    12    5   16 1    
    13    6   17 1    
    14    7    8 1    
    15    7    9 1    
    16    7   18 1    
    17    8   19 1    
    18    9   10 2    
    19    9   20 1    
@<TRIPOS>SUBSTRUCTURE
     1 ****        1 TEMP              0 ****  ****    0 ROOT 
@<TRIPOS>NORMAL
@<TRIPOS>FF_PBC
FORCE_FIELD_SETUP_FEATURE Force Field Setup information
v1.0  0 0.000000 0.000000 0.000000 0.000000 0.000000 0.000000 NONE 0 0 0 0 1 0 0 0 0 0 0 0 0
