@<TRIPOS>MOLECULE
MOL002299
   15    14     1     1     0
SMALL
GASTEIGER


@<TRIPOS>ATOM
      1 O          -2.394979    0.452938   -0.651098 O.3       1 <1>        -0.329315 
      2 C          -1.329766    0.707062    0.115501 C.2       1 <1>         0.288922 
      3 O          -1.472336    0.968131    1.298199 O.2       1 <1>        -0.262277 
      4 C           0.043642    0.655454   -0.520471 C.3       1 <1>         0.148723 
      5 C           0.646088   -0.755023   -0.300872 C.3       1 <1>         0.068259 
      6 C           0.778607   -1.059036    1.166122 C.2       1 <1>         0.262580 
      7 O           0.224209   -2.018111    1.679404 O.2       1 <1>        -0.265069 
      8 O           1.541251   -0.212127    1.858284 O.3       1 <1>        -0.331193 
      9 O          -0.099893    0.907400   -1.935098 O.3       1 <1>        -0.381260 
     10 H          -2.156576    0.305223   -1.560481 H         1 <1>         0.220292 
     11 H           0.675323    1.432423   -0.054399 H         1 <1>         0.070324 
     12 H           0.000691   -1.504737   -0.785251 H         1 <1>         0.039665 
     13 H           1.645803   -0.811704   -0.757160 H         1 <1>         0.039665 
     14 H           1.581447   -0.449637    2.779042 H         1 <1>         0.220209 
     15 H           0.729571    0.922337   -2.404182 H         1 <1>         0.210476 
@<TRIPOS>BOND
     1    1    2 1    
     2    1   10 1    
     3    2    3 2    
     4    2    4 1    
     5    4    5 1    
     6    4    9 1    
     7    4   11 1    
     8    5    6 1    
     9    5   12 1    
    10    5   13 1    
    11    6    7 2    
    12    6    8 1    
    13    8   14 1    
    14    9   15 1    
@<TRIPOS>SUBSTRUCTURE
     1 ****        1 TEMP              0 ****  ****    0 ROOT 
@<TRIPOS>NORMAL
@<TRIPOS>FF_PBC
FORCE_FIELD_SETUP_FEATURE Force Field Setup information
v1.0  0 0.000000 0.000000 0.000000 0.000000 0.000000 0.000000 NONE 0 0 0 0 1 0 0 0 0 0 0 0 0
