@<TRIPOS>MOLECULE
MOL005559
   82    86     1     1     0
SMALL
GASTEIGER


@<TRIPOS>ATOM
      1 C          -0.226499   -0.662836    0.528574 C.3       1 <1>        -0.019371 
      2 C           1.192447   -0.323518   -0.117867 C.3       1 <1>        -0.005095 
      3 C          -1.364011   -0.060992   -0.370921 C.3       1 <1>        -0.025655 
      4 C          -0.447926   -2.212941    0.617382 C.3       1 <1>        -0.046268 
      5 C          -0.291433   -0.031060    1.968534 C.3       1 <1>        -0.058491 
      6 C           1.333024    1.190890   -0.033564 C.2       1 <1>        -0.062908 
      7 C           2.335966   -1.135577    0.588747 C.3       1 <1>        -0.042415 
      8 C           1.316697   -0.623450   -1.656831 C.3       1 <1>        -0.055323 
      9 C          -2.864476   -0.473329   -0.050433 C.3       1 <1>        -0.022627 
     10 C          -1.114983    1.466991   -0.616572 C.3       1 <1>        -0.030613 
     11 C          -1.902172   -2.656205    0.946545 C.3       1 <1>        -0.048607 
     12 C           2.683114    1.829415    0.271963 C.3       1 <1>        -0.004222 
     13 C           0.267655    1.971356   -0.271494 C.2       1 <1>        -0.083635 
     14 C           3.733569   -0.456192    0.559015 C.3       1 <1>        -0.036973 
     15 C          -2.939481   -2.047228   -0.046248 C.3       1 <1>        -0.027669 
     16 C          -3.785167    0.076580   -1.205859 C.3       1 <1>        -0.018438 
     17 C          -3.392572    0.128679    1.301573 C.3       1 <1>        -0.058928 
     18 C           3.659311    0.982416    1.146449 C.3       1 <1>         0.062460 
     19 C           3.305267    2.285179   -1.084295 C.3       1 <1>        -0.040331 
     20 C          -4.374640   -2.706478    0.045736 C.3       1 <1>        -0.003164 
     21 C          -4.810556   -0.936199   -1.791344 C.3       1 <1>         0.082079 
     22 C           5.067666    1.654884    1.214481 C.3       1 <1>        -0.037288 
     23 C           3.221861    0.933996    2.603763 C.2       1 <1>         0.266382 
     24 C           4.688572    2.990884   -0.962736 C.3       1 <1>        -0.034278 
     25 C          -5.446521   -1.818884   -0.682926 C.3       1 <1>         0.086418 
     26 C          -4.353505   -4.117502   -0.646286 C.3       1 <1>        -0.057105 
     27 C          -4.839594   -2.986320    1.512028 C.3       1 <1>        -0.057105 
     28 O          -4.168782   -1.728271   -2.811847 O.3       1 <1>        -0.389202 
     29 C           5.646676    2.057625   -0.166972 C.3       1 <1>        -0.046865 
     30 O           2.761710    2.075886    3.123375 O.3       1 <1>        -0.330836 
     31 O           3.294456   -0.078833    3.282897 O.2       1 <1>        -0.264536 
     32 C           5.277162    3.206337   -2.392346 C.3       1 <1>        -0.059792 
     33 C           4.560510    4.398472   -0.299179 C.3       1 <1>        -0.059792 
     34 O          -6.204291   -1.014514    0.243504 O.3       1 <1>        -0.388697 
     35 H          -1.198380   -0.536235   -1.347601 H         1 <1>         0.031461 
     36 H           2.483019    2.756129    0.829191 H         1 <1>         0.035619 
     37 H          -2.566881   -2.348360   -1.037747 H         1 <1>         0.031212 
     38 H           0.206417   -2.659701    1.381861 H         1 <1>         0.027096 
     39 H          -0.196257   -2.693959   -0.336824 H         1 <1>         0.027096 
     40 H          -0.747477   -0.700955    2.707719 H         1 <1>         0.023542 
     41 H           0.691181    0.220641    2.378510 H         1 <1>         0.023542 
     42 H          -0.844535    0.916383    1.982738 H         1 <1>         0.023542 
     43 H           2.424921   -2.127586    0.115242 H         1 <1>         0.027403 
     44 H           2.105988   -1.344736    1.638727 H         1 <1>         0.027403 
     45 H           0.948078   -1.619145   -1.930867 H         1 <1>         0.023829 
     46 H           0.787979    0.113133   -2.280926 H         1 <1>         0.023829 
     47 H           2.360070   -0.602682   -1.990850 H         1 <1>         0.023829 
     48 H          -1.283041    1.733809   -1.672674 H         1 <1>         0.031042 
     49 H          -1.802673    2.089222   -0.034610 H         1 <1>         0.031042 
     50 H          -2.152252   -2.421840    1.987808 H         1 <1>         0.026846 
     51 H          -1.909744   -3.754969    0.881559 H         1 <1>         0.026846 
     52 H           0.381577    3.056514   -0.231745 H         1 <1>         0.057198 
     53 H           4.123246   -0.448483   -0.466149 H         1 <1>         0.027586 
     54 H           4.436961   -1.063096    1.153717 H         1 <1>         0.027586 
     55 H          -4.325129    0.973798   -0.860671 H         1 <1>         0.029632 
     56 H          -3.210349    0.401512   -2.085796 H         1 <1>         0.029632 
     57 H          -3.216231    1.204985    1.395456 H         1 <1>         0.023526 
     58 H          -4.476659    0.031138    1.385310 H         1 <1>         0.023526 
     59 H          -2.975995   -0.337628    2.196504 H         1 <1>         0.023526 
     60 H           2.607794    2.966847   -1.598059 H         1 <1>         0.027642 
     61 H           3.431989    1.415601   -1.738537 H         1 <1>         0.027642 
     62 H          -5.607413   -0.355455   -2.293541 H         1 <1>         0.061925 
     63 H           5.026150    2.557465    1.843557 H         1 <1>         0.027577 
     64 H           5.774340    0.965284    1.705995 H         1 <1>         0.027577 
     65 H          -6.195098   -2.471443   -1.166099 H         1 <1>         0.062439 
     66 H          -5.341939   -4.599889   -0.589904 H         1 <1>         0.023588 
     67 H          -3.643909   -4.808486   -0.172185 H         1 <1>         0.023588 
     68 H          -4.081784   -4.051390   -1.708751 H         1 <1>         0.023588 
     69 H          -5.877533   -3.353989    1.509889 H         1 <1>         0.023588 
     70 H          -4.809337   -2.098261    2.152205 H         1 <1>         0.023588 
     71 H          -4.221351   -3.758642    1.993042 H         1 <1>         0.023588 
     72 H          -4.766285   -2.299916   -3.284316 H         1 <1>         0.209888 
     73 H           6.613912    2.566065   -0.019170 H         1 <1>         0.027072 
     74 H           5.848989    1.145447   -0.748881 H         1 <1>         0.027072 
     75 H           2.506434    1.978493    4.034236 H         1 <1>         0.220226 
     76 H           6.261668    3.695940   -2.336863 H         1 <1>         0.023499 
     77 H           4.610081    3.841193   -2.995642 H         1 <1>         0.023499 
     78 H           5.405286    2.250175   -2.922748 H         1 <1>         0.023499 
     79 H           3.910296    5.045376   -0.907686 H         1 <1>         0.023499 
     80 H           5.549650    4.876861   -0.234104 H         1 <1>         0.023499 
     81 H           4.139935    4.374312    0.713358 H         1 <1>         0.023499 
     82 H          -6.890342   -0.489371   -0.157212 H         1 <1>         0.209912 
@<TRIPOS>BOND
     1    1    2 1    
     2    1    3 1    
     3    1    4 1    
     4    1    5 1    
     5    2    6 1    
     6    2    7 1    
     7    2    8 1    
     8    3    9 1    
     9    3   10 1    
    10    3   35 1    
    11    4   11 1    
    12    4   38 1    
    13    4   39 1    
    14    5   40 1    
    15    5   41 1    
    16    5   42 1    
    17    6   12 1    
    18    6   13 2    
    19    7   14 1    
    20    7   43 1    
    21    7   44 1    
    22    8   45 1    
    23    8   46 1    
    24    8   47 1    
    25    9   15 1    
    26    9   16 1    
    27    9   17 1    
    28   10   13 1    
    29   10   48 1    
    30   10   49 1    
    31   11   15 1    
    32   11   50 1    
    33   11   51 1    
    34   12   18 1    
    35   12   19 1    
    36   12   36 1    
    37   13   52 1    
    38   14   18 1    
    39   14   53 1    
    40   14   54 1    
    41   15   20 1    
    42   15   37 1    
    43   16   21 1    
    44   16   55 1    
    45   16   56 1    
    46   17   57 1    
    47   17   58 1    
    48   17   59 1    
    49   18   22 1    
    50   18   23 1    
    51   19   24 1    
    52   19   60 1    
    53   19   61 1    
    54   20   25 1    
    55   20   26 1    
    56   20   27 1    
    57   21   25 1    
    58   21   28 1    
    59   21   62 1    
    60   22   29 1    
    61   22   63 1    
    62   22   64 1    
    63   23   30 1    
    64   23   31 2    
    65   24   29 1    
    66   24   32 1    
    67   24   33 1    
    68   25   34 1    
    69   25   65 1    
    70   26   66 1    
    71   26   67 1    
    72   26   68 1    
    73   27   69 1    
    74   27   70 1    
    75   27   71 1    
    76   28   72 1    
    77   29   73 1    
    78   29   74 1    
    79   30   75 1    
    80   32   76 1    
    81   32   77 1    
    82   32   78 1    
    83   33   79 1    
    84   33   80 1    
    85   33   81 1    
    86   34   82 1    
@<TRIPOS>SUBSTRUCTURE
     1 ****        1 TEMP              0 ****  ****    0 ROOT 
@<TRIPOS>NORMAL
@<TRIPOS>FF_PBC
FORCE_FIELD_SETUP_FEATURE Force Field Setup information
v1.0  0 0.000000 0.000000 0.000000 0.000000 0.000000 0.000000 NONE 0 0 0 0 1 0 0 0 0 0 0 0 0
