@<TRIPOS>MOLECULE
MOL004888
  139   147     1     1     0
SMALL
GASTEIGER


@<TRIPOS>ATOM
      1 C          22.259725  -34.051126   -0.061915 C.3       1 <1>         0.056271 
      2 C          23.454637  -33.175632   -0.046076 C.3       1 <1>        -0.011012 
      3 C          23.949061  -32.209484    0.961583 C.3       1 <1>         0.074936 
      4 C          22.941642  -30.945923    0.443432 C.3       1 <1>         0.001335 
      5 C          21.456981  -31.504283    0.175403 C.3       1 <1>        -0.010638 
      6 C          21.276592  -32.863755   -0.655274 C.3       1 <1>        -0.031361 
      7 C          22.555783  -29.820004    1.517664 C.3       1 <1>        -0.043901 
      8 C          21.158768  -28.984574    1.422888 C.3       1 <1>        -0.042809 
      9 C          20.168536  -29.209855    0.193625 C.3       1 <1>        -0.005117 
     10 C          20.167146  -30.723054    0.483266 C.2       1 <1>        -0.063305 
     11 C          18.639938  -28.694605    0.175302 C.3       1 <1>        -0.019373 
     12 C          17.545587  -29.539924    0.980837 C.3       1 <1>        -0.025736 
     13 C          17.790812  -30.995619    1.421008 C.3       1 <1>        -0.030614 
     14 C          19.216611  -31.366478    1.110268 C.2       1 <1>        -0.083646 
     15 C          18.431124  -27.266090    0.781864 C.3       1 <1>        -0.046268 
     16 C          16.982034  -26.775575    0.409262 C.3       1 <1>        -0.048609 
     17 C          15.835389  -27.875696    0.527580 C.3       1 <1>        -0.027826 
     18 C          16.158170  -29.442615    0.294579 C.3       1 <1>        -0.024959 
     19 C          14.339060  -27.421067    0.206388 C.3       1 <1>        -0.005229 
     20 C          13.747570  -28.532447   -0.689491 C.3       1 <1>         0.067175 
     21 C          13.716030  -29.919358    0.054175 C.3       1 <1>        -0.025470 
     22 C          14.954272  -30.131198    1.003772 C.3       1 <1>        -0.044711 
     23 O          24.709512  -33.474107    0.455477 O.3       1 <1>        -0.310871 
     24 C          21.702991  -35.423238   -0.542990 C.3       1 <1>        -0.050390 
     25 C          23.852752  -34.493444   -0.095930 C.2       1 <1>         0.268488 
     26 O          24.326749  -35.536004   -0.558124 O.2       1 <1>        -0.264354 
     27 C          16.250635  -30.360436   -1.038840 C.3       1 <1>        -0.059009 
     28 C          18.275534  -28.457227   -1.360995 C.3       1 <1>        -0.058491 
     29 C          20.954894  -28.528449   -0.984267 C.3       1 <1>        -0.055324 
     30 C          23.679206  -30.278872   -0.796920 C.3       1 <1>        -0.056635 
     31 C          14.338670  -26.064778   -0.572167 C.3       1 <1>        -0.057181 
     32 C          13.324200  -27.276154    1.423339 C.3       1 <1>        -0.057181 
     33 O          12.780613  -28.064046   -1.646202 O.3       1 <1>        -0.344868 
     34 C           9.183418  -29.564482   -0.177859 C.3       1 <1>         0.119040 
     35 C          10.429715  -30.461128   -0.369136 C.3       1 <1>         0.174377 
     36 O          11.271287  -29.950656   -1.427918 O.3       1 <1>        -0.332678 
     37 C          11.447749  -28.514947   -1.529422 C.3       1 <1>         0.189107 
     38 C          10.284454  -27.458765   -1.339574 C.3       1 <1>         0.140651 
     39 C           9.049416  -28.472253   -1.280171 C.3       1 <1>         0.114864 
     40 C          10.258329  -31.956449   -0.592178 C.2       1 <1>         0.291467 
     41 O           9.095169  -32.381886   -1.103639 O.3       1 <1>        -0.329249 
     42 O          11.151552  -32.735368   -0.329720 O.2       1 <1>        -0.262180 
     43 O           9.205106  -28.879221    1.089113 O.3       1 <1>        -0.386033 
     44 O           7.686266  -28.008717   -1.185857 O.3       1 <1>        -0.386378 
     45 C           8.907228  -24.843966    1.213447 C.3       1 <1>         0.174377 
     46 O          10.290918  -24.522397    0.899997 O.3       1 <1>        -0.332673 
     47 C          10.660829  -24.959435   -0.409898 C.3       1 <1>         0.189422 
     48 C           9.865458  -23.882433   -1.272026 C.3       1 <1>         0.140656 
     49 C           8.302982  -24.057140   -1.128140 C.3       1 <1>         0.114864 
     50 C           8.026332  -25.114086   -0.033388 C.3       1 <1>         0.119040 
     51 C           8.789028  -26.060129    2.119053 C.2       1 <1>         0.291467 
     52 O           7.575972  -26.531076    2.420196 O.3       1 <1>        -0.329249 
     53 O           9.792461  -26.635803    2.562065 O.2       1 <1>        -0.262180 
     54 O          10.444765  -26.453274   -0.247707 O.3       1 <1>        -0.337735 
     55 O           7.493971  -22.949323   -0.731024 O.3       1 <1>        -0.386378 
     56 O           6.638131  -25.369156    0.290723 O.3       1 <1>        -0.386033 
     57 C           8.780955  -19.280263    0.625999 C.3       1 <1>         0.119030 
     58 C           8.466288  -20.761147    0.232070 C.3       1 <1>         0.174377 
     59 O           9.564812  -21.628102    0.607010 O.3       1 <1>        -0.332684 
     60 C          10.651069  -21.586100   -0.311419 C.3       1 <1>         0.189056 
     61 C          11.074619  -20.063410   -0.554762 C.3       1 <1>         0.134152 
     62 C          10.072320  -18.878341   -0.173838 C.3       1 <1>         0.114497 
     63 C           8.022899  -20.665908   -1.230869 C.2       1 <1>         0.291467 
     64 O           6.734131  -20.475637   -1.500140 O.3       1 <1>        -0.329249 
     65 O           8.816219  -20.700016   -2.158594 O.2       1 <1>        -0.262180 
     66 O          10.362431  -22.481966   -1.450629 O.3       1 <1>        -0.337745 
     67 O          10.686034  -17.791042    0.569247 O.3       1 <1>        -0.386388 
     68 O           8.990000  -19.120241    2.057411 O.3       1 <1>        -0.386033 
     69 O          12.315460  -19.758838    0.128893 O.3       1 <1>        -0.384104 
     70 H          22.793193  -33.107263    0.967901 H         1 <1>         0.030059 
     71 H          23.451061  -32.591326   -1.042122 H         1 <1>         0.030059 
     72 H          24.927975  -31.701632    1.044913 H         1 <1>         0.060788 
     73 H          21.360640  -31.819214    1.232479 H         1 <1>         0.035217 
     74 H          20.211812  -33.137064   -0.591571 H         1 <1>         0.028123 
     75 H          21.410961  -32.650916   -1.731616 H         1 <1>         0.028123 
     76 H          22.474104  -30.372176    2.472878 H         1 <1>         0.027177 
     77 H          23.405131  -29.145469    1.685392 H         1 <1>         0.027177 
     78 H          20.575366  -29.155875    2.345761 H         1 <1>         0.027393 
     79 H          21.422133  -27.918694    1.512217 H         1 <1>         0.027393 
     80 H          17.479610  -29.156777    2.004414 H         1 <1>         0.031460 
     81 H          17.449646  -31.285024    2.446169 H         1 <1>         0.031042 
     82 H          17.393770  -31.759997    0.733894 H         1 <1>         0.031042 
     83 H          19.324362  -32.389312    1.543756 H         1 <1>         0.057198 
     84 H          18.526031  -27.256709    1.882492 H         1 <1>         0.027096 
     85 H          19.200979  -26.575951    0.407592 H         1 <1>         0.027096 
     86 H          16.778400  -25.896429    1.043471 H         1 <1>         0.026846 
     87 H          17.046876  -26.355714   -0.593545 H         1 <1>         0.026846 
     88 H          15.755423  -27.781024    1.622732 H         1 <1>         0.031210 
     89 H          14.489325  -28.544445   -1.474772 H         1 <1>         0.060224 
     90 H          12.883726  -30.006130    0.745244 H         1 <1>         0.029047 
     91 H          13.598299  -30.734269   -0.684532 H         1 <1>         0.029047 
     92 H          14.824022  -29.721678    2.018866 H         1 <1>         0.027149 
     93 H          15.112260  -31.205346    1.183527 H         1 <1>         0.027149 
     94 H          20.618828  -35.409307   -0.335374 H         1 <1>         0.023987 
     95 H          21.847805  -35.595329   -1.623018 H         1 <1>         0.023987 
     96 H          22.096567  -36.262409    0.061315 H         1 <1>         0.023987 
     97 H          15.911292  -29.982387   -2.016863 H         1 <1>         0.023525 
     98 H          17.249761  -30.759298   -1.241143 H         1 <1>         0.023525 
     99 H          15.718375  -31.317462   -0.954543 H         1 <1>         0.023525 
    100 H          17.233052  -28.305441   -1.610936 H         1 <1>         0.023542 
    101 H          18.634811  -29.279950   -2.019572 H         1 <1>         0.023542 
    102 H          18.626022  -27.490187   -1.771090 H         1 <1>         0.023542 
    103 H          21.652480  -29.220972   -1.359020 H         1 <1>         0.023829 
    104 H          21.418446  -27.594805   -0.653171 H         1 <1>         0.023829 
    105 H          20.569916  -28.264148   -1.961620 H         1 <1>         0.023829 
    106 H          24.694152  -30.663665   -0.950423 H         1 <1>         0.023605 
    107 H          23.768340  -29.189322   -0.722478 H         1 <1>         0.023605 
    108 H          23.194369  -30.559873   -1.751352 H         1 <1>         0.023605 
    109 H          15.028405  -26.073176   -1.427019 H         1 <1>         0.023587 
    110 H          13.339786  -25.906809   -0.970910 H         1 <1>         0.023587 
    111 H          14.586398  -25.253844    0.126628 H         1 <1>         0.023587 
    112 H          13.226368  -28.253882    1.960064 H         1 <1>         0.023587 
    113 H          13.759507  -26.566074    2.177183 H         1 <1>         0.023587 
    114 H          12.324388  -26.842335    1.107715 H         1 <1>         0.023587 
    115 H           8.292106  -30.216693   -0.161419 H         1 <1>         0.065129 
    116 H          10.848130  -30.479095    0.641311 H         1 <1>         0.072940 
    117 H          11.413356  -28.622910   -2.623697 H         1 <1>         0.093773 
    118 H          10.143499  -26.848757   -2.250638 H         1 <1>         0.067477 
    119 H           9.033365  -29.004917   -2.245281 H         1 <1>         0.064781 
    120 H           9.090839  -33.332114   -1.201027 H         1 <1>         0.220293 
    121 H           9.926816  -28.259967    1.168795 H         1 <1>         0.210020 
    122 H           7.377768  -27.945097   -0.280947 H         1 <1>         0.210005 
    123 H           8.515269  -23.977718    1.765379 H         1 <1>         0.072940 
    124 H          11.696500  -24.640583   -0.505817 H         1 <1>         0.093777 
    125 H          10.094208  -24.254310   -2.279694 H         1 <1>         0.067477 
    126 H           7.887673  -24.397384   -2.096277 H         1 <1>         0.064781 
    127 H           8.368773  -26.002943   -0.525361 H         1 <1>         0.065129 
    128 H           6.862464  -26.067410    1.991158 H         1 <1>         0.220293 
    129 H           6.558199  -23.148572   -0.675883 H         1 <1>         0.210005 
    130 H           6.132243  -25.707970   -0.449167 H         1 <1>         0.210020 
    131 H           7.928872  -18.593544    0.315225 H         1 <1>         0.065129 
    132 H           7.669627  -21.107346    0.914494 H         1 <1>         0.072940 
    133 H          11.538443  -22.053457    0.142883 H         1 <1>         0.093767 
    134 H          11.283405  -19.956729   -1.632537 H         1 <1>         0.067096 
    135 H           9.732074  -18.370534   -1.103126 H         1 <1>         0.064771 
    136 H           6.170911  -20.425752   -0.741134 H         1 <1>         0.220293 
    137 H          10.842036  -18.032975    1.482459 H         1 <1>         0.210005 
    138 H           8.139027  -19.141748    2.489807 H         1 <1>         0.210020 
    139 H          12.597817  -18.855842   -0.018602 H         1 <1>         0.210110 
@<TRIPOS>BOND
     1    1    2 1    
     2    6    1 1    
     3    1   24 1    
     4    1   25 1    
     5    3    2 1    
     6    2   70 1    
     7    2   71 1    
     8    4    3 1    
     9    3   23 1    
    10    3   72 1    
    11    5    4 1    
    12    7    4 1    
    13    4   30 1    
    14    5    6 1    
    15   10    5 1    
    16    5   73 1    
    17    6   74 1    
    18    6   75 1    
    19    8    7 1    
    20    7   76 1    
    21    7   77 1    
    22    9    8 1    
    23    8   78 1    
    24    8   79 1    
    25    9   10 1    
    26   11    9 1    
    27    9   29 1    
    28   14   10 2    
    29   12   11 1    
    30   15   11 1    
    31   11   28 1    
    32   12   13 1    
    33   18   12 1    
    34   12   80 1    
    35   13   14 1    
    36   13   81 1    
    37   13   82 1    
    38   14   83 1    
    39   16   15 1    
    40   15   84 1    
    41   15   85 1    
    42   17   16 1    
    43   16   86 1    
    44   16   87 1    
    45   17   18 1    
    46   19   17 1    
    47   17   88 1    
    48   22   18 1    
    49   18   27 1    
    50   20   19 1    
    51   19   31 1    
    52   19   32 1    
    53   20   21 1    
    54   33   20 1    
    55   20   89 1    
    56   21   22 1    
    57   21   90 1    
    58   21   91 1    
    59   22   92 1    
    60   22   93 1    
    61   25   23 1    
    62   24   94 1    
    63   24   95 1    
    64   24   96 1    
    65   25   26 2    
    66   27   97 1    
    67   27   98 1    
    68   27   99 1    
    69   28  100 1    
    70   28  101 1    
    71   28  102 1    
    72   29  103 1    
    73   29  104 1    
    74   29  105 1    
    75   30  106 1    
    76   30  107 1    
    77   30  108 1    
    78   31  109 1    
    79   31  110 1    
    80   31  111 1    
    81   32  112 1    
    82   32  113 1    
    83   32  114 1    
    84   37   33 1    
    85   34   35 1    
    86   39   34 1    
    87   34   43 1    
    88   34  115 1    
    89   36   35 1    
    90   35   40 1    
    91   35  116 1    
    92   37   36 1    
    93   38   37 1    
    94   37  117 1    
    95   38   39 1    
    96   54   38 1    
    97   38  118 1    
    98   39   44 1    
    99   39  119 1    
   100   40   41 1    
   101   40   42 2    
   102   41  120 1    
   103   43  121 1    
   104   44  122 1    
   105   46   45 1    
   106   50   45 1    
   107   45   51 1    
   108   45  123 1    
   109   47   46 1    
   110   48   47 1    
   111   47   54 1    
   112   47  124 1    
   113   48   49 1    
   114   66   48 1    
   115   48  125 1    
   116   49   50 1    
   117   49   55 1    
   118   49  126 1    
   119   50   56 1    
   120   50  127 1    
   121   51   52 1    
   122   51   53 2    
   123   52  128 1    
   124   55  129 1    
   125   56  130 1    
   126   58   57 1    
   127   57   62 1    
   128   57   68 1    
   129   57  131 1    
   130   59   58 1    
   131   58   63 1    
   132   58  132 1    
   133   60   59 1    
   134   60   61 1    
   135   60   66 1    
   136   60  133 1    
   137   61   62 1    
   138   61   69 1    
   139   61  134 1    
   140   62   67 1    
   141   62  135 1    
   142   63   64 1    
   143   63   65 2    
   144   64  136 1    
   145   67  137 1    
   146   68  138 1    
   147   69  139 1    
@<TRIPOS>SUBSTRUCTURE
     1 ****       57 TEMP              0 ****  ****    0 ROOT 
@<TRIPOS>NORMAL
@<TRIPOS>FF_PBC
FORCE_FIELD_SETUP_FEATURE Force Field Setup information
v1.0  0 0.000000 0.000000 0.000000 0.000000 0.000000 0.000000 NONE 0 0 0 0 1 0 0 0 0 0 0 0 0
