@<TRIPOS>MOLECULE
MOL001880
    8     7     1     1     0
SMALL
GASTEIGER


@<TRIPOS>ATOM
      1 C           0.388208    0.631567   -0.000016 C.2       1 <1>         0.356196 
      2 C          -0.388207   -0.631568    0.000236 C.2       1 <1>         0.356196 
      3 O          -0.197294    1.704864   -0.000900 O.2       1 <1>        -0.253454 
      4 O           1.727133    0.597100    0.000742 O.3       1 <1>        -0.323464 
      5 O           0.197294   -1.704864    0.000408 O.2       1 <1>        -0.253454 
      6 O          -1.727133   -0.597100    0.000144 O.3       1 <1>        -0.323464 
      7 H           2.115686    1.465573    0.000251 H         1 <1>         0.220722 
      8 H          -2.115686   -1.465574    0.000135 H         1 <1>         0.220722 
@<TRIPOS>BOND
     1    1    2 1    
     2    1    3 2    
     3    1    4 1    
     4    2    5 2    
     5    2    6 1    
     6    4    7 1    
     7    6    8 1    
@<TRIPOS>SUBSTRUCTURE
     1 ****        1 TEMP              0 ****  ****    0 ROOT 
@<TRIPOS>NORMAL
@<TRIPOS>FF_PBC
FORCE_FIELD_SETUP_FEATURE Force Field Setup information
v1.0  0 0.000000 0.000000 0.000000 0.000000 0.000000 0.000000 NONE 0 0 0 0 1 0 0 0 0 0 0 0 0
