@<TRIPOS>MOLECULE
MOL000019
   26    27     1     1     0
SMALL
GASTEIGER


@<TRIPOS>ATOM
      1 C          -1.028640    0.689828   -0.228831 C.3       1 <1>        -0.031640 
      2 C           0.536882    0.680968   -0.217961 C.3       1 <1>        -0.011042 
      3 C           0.716517   -0.815089   -0.210524 C.2       1 <1>        -0.067616 
      4 C          -0.615373   -1.518712   -0.182826 C.3       1 <1>        -0.019347 
      5 C          -1.221382   -1.253891    1.219621 C.3       1 <1>        -0.046216 
      6 C          -1.628074    0.245577    1.136623 C.3       1 <1>        -0.048877 
      7 C          -1.404550   -0.548651   -1.082925 C.3       1 <1>        -0.042880 
      8 C           1.897725   -1.442854   -0.225750 C.2       1 <1>        -0.098663 
      9 C           1.120124    1.337797   -1.504252 C.3       1 <1>        -0.055841 
     10 C           1.179912    1.348454    1.031649 C.3       1 <1>        -0.055841 
     11 H          -1.453083    1.642218   -0.585933 H         1 <1>         0.030919 
     12 H          -0.604419   -2.573974   -0.500744 H         1 <1>         0.034577 
     13 H          -0.483154   -1.453736    2.013424 H         1 <1>         0.027106 
     14 H          -2.102282   -1.895692    1.387374 H         1 <1>         0.027106 
     15 H          -2.726944    0.337221    1.086450 H         1 <1>         0.026838 
     16 H          -1.300856    0.847840    1.996317 H         1 <1>         0.026838 
     17 H          -1.043109   -0.535294   -2.122007 H         1 <1>         0.027389 
     18 H          -2.485144   -0.769008   -1.100042 H         1 <1>         0.027389 
     19 H           2.832361   -0.884601   -0.243672 H         1 <1>         0.053466 
     20 H           1.948092   -2.530893   -0.218587 H         1 <1>         0.053466 
     21 H           2.215927    1.241706   -1.526330 H         1 <1>         0.023811 
     22 H           0.733431    0.887459   -2.427770 H         1 <1>         0.023811 
     23 H           0.868970    2.409383   -1.514381 H         1 <1>         0.023811 
     24 H           2.270715    1.427031    0.910478 H         1 <1>         0.023811 
     25 H           0.771473    2.361734    1.163998 H         1 <1>         0.023811 
     26 H           1.004679    0.765076    1.946804 H         1 <1>         0.023811 
@<TRIPOS>BOND
     1    1    2 1    
     2    1    6 1    
     3    1    7 1    
     4    1   11 1    
     5    2    3 1    
     6    2    9 1    
     7    2   10 1    
     8    3    4 1    
     9    3    8 2    
    10    4    5 1    
    11    4    7 1    
    12    4   12 1    
    13    5    6 1    
    14    5   13 1    
    15    5   14 1    
    16    6   15 1    
    17    6   16 1    
    18    7   17 1    
    19    7   18 1    
    20    8   19 1    
    21    8   20 1    
    22    9   21 1    
    23    9   22 1    
    24    9   23 1    
    25   10   24 1    
    26   10   25 1    
    27   10   26 1    
@<TRIPOS>SUBSTRUCTURE
     1 ****        1 TEMP              0 ****  ****    0 ROOT 
@<TRIPOS>NORMAL
@<TRIPOS>FF_PBC
FORCE_FIELD_SETUP_FEATURE Force Field Setup information
v1.0  0 0.000000 0.000000 0.000000 0.000000 0.000000 0.000000 NONE 0 0 0 0 1 0 0 0 0 0 0 0 0
