@<TRIPOS>MOLECULE
MOL004498
   69    73     1     1     0
SMALL
GASTEIGER


@<TRIPOS>ATOM
      1 N           0.323326    4.705948    1.724528 N.ar      1 <1>        -0.262485 
      2 C           1.124418    5.661764    1.193379 C.ar      1 <1>         0.027595 
      3 C           2.589439    5.456580    1.122937 C.ar      1 <1>        -0.042856 
      4 C           3.120747    4.261205    1.600329 C.ar      1 <1>        -0.045976 
      5 C           2.194973    3.238005    2.144135 C.ar      1 <1>         0.064529 
      6 C           0.813368    3.531496    2.194025 C.ar      1 <1>         0.040413 
      7 C           2.708908    1.907397    2.650825 C.2       1 <1>         0.295553 
      8 O           2.376015    1.562772    3.772628 O.2       1 <1>        -0.259163 
      9 O           3.510458    1.078318    1.959724 O.3       1 <1>        -0.307401 
     10 C           3.447436    1.172531    0.518185 C.3       1 <1>         0.077470 
     11 C           2.045981    0.729456    0.016038 C.3       1 <1>        -0.019026 
     12 C           1.677495   -0.651040    0.630749 C.3       1 <1>         0.002333 
     13 C           2.885306   -1.656928    0.546213 C.3       1 <1>         0.102241 
     14 C           0.201102   -1.141738    0.337185 C.3       1 <1>        -0.005301 
     15 C           0.041233   -2.638263    0.538610 C.2       1 <1>        -0.064673 
     16 C           1.063368   -3.500091    0.529029 C.2       1 <1>        -0.081343 
     17 C           2.444703   -3.086555    0.129526 C.3       1 <1>        -0.002473 
     18 C          -0.238165   -0.996749   -1.151048 C.3       1 <1>        -0.041229 
     19 C          -1.644652   -1.617034   -1.437385 C.3       1 <1>        -0.025765 
     20 C          -1.819776   -3.057643   -0.872229 C.3       1 <1>         0.058951 
     21 C          -1.369482   -3.172903    0.612830 C.3       1 <1>        -0.005077 
     22 O           3.395705   -1.796126    1.896232 O.3       1 <1>        -0.385099 
     23 C          -0.772423   -0.325922    1.266423 C.3       1 <1>        -0.055493 
     24 O          -3.200952   -3.431234   -1.019848 O.3       1 <1>        -0.391474 
     25 C           4.123351   -1.205421   -0.322946 C.3       1 <1>         0.103509 
     26 C           4.568906    0.291754   -0.121255 C.3       1 <1>         0.035622 
     27 C           4.879414    0.827906   -1.563902 C.3       1 <1>         0.027784 
     28 C           5.067934   -0.427196   -2.443250 C.3       1 <1>        -0.040130 
     29 C           3.993378   -1.377313   -1.866809 C.3       1 <1>        -0.019988 
     30 C           5.842418    0.403452    0.775346 C.3       1 <1>        -0.053793 
     31 O           5.140917   -2.145133    0.109393 O.3       1 <1>        -0.385058 
     32 C           5.934499    1.910793   -1.636274 C.2       1 <1>         0.134063 
     33 O           5.713816    3.006381   -1.143710 O.2       1 <1>        -0.297388 
     34 C           7.244293    1.637813   -2.329958 C.3       1 <1>        -0.005764 
     35 H           0.687568    6.583106    0.821151 H         1 <1>         0.082934 
     36 H           3.235330    6.224473    0.710712 H         1 <1>         0.063285 
     37 H           4.191508    4.085919    1.580477 H         1 <1>         0.062620 
     38 H           0.121675    2.806085    2.609327 H         1 <1>         0.083725 
     39 H           3.647898    2.205026    0.201667 H         1 <1>         0.060876 
     40 H           1.324668    1.505996    0.298935 H         1 <1>         0.029432 
     41 H           2.010487    0.676187   -1.075927 H         1 <1>         0.029432 
     42 H           1.625772   -0.440955    1.710313 H         1 <1>         0.033868 
     43 H           0.906972   -4.561713    0.728673 H         1 <1>         0.057273 
     44 H           3.177711   -3.841995    0.457128 H         1 <1>         0.033619 
     45 H           2.370367   -3.163548   -0.962159 H         1 <1>         0.033619 
     46 H          -0.271535    0.065429   -1.440634 H         1 <1>         0.027447 
     47 H           0.505182   -1.502927   -1.787764 H         1 <1>         0.027447 
     48 H          -1.804633   -1.646556   -2.528558 H         1 <1>         0.029039 
     49 H          -2.447789   -0.984561   -1.032863 H         1 <1>         0.029039 
     50 H          -1.189910   -3.730555   -1.485157 H         1 <1>         0.059621 
     51 H          -2.039155   -2.643282    1.301015 H         1 <1>         0.033510 
     52 H          -1.405800   -4.233259    0.909162 H         1 <1>         0.033510 
     53 H           4.200371   -2.304423    1.939134 H         1 <1>         0.210310 
     54 H          -0.628412   -0.632897    2.314214 H         1 <1>         0.023821 
     55 H          -1.839068   -0.433405    1.049034 H         1 <1>         0.023821 
     56 H          -0.587147    0.752388    1.205653 H         1 <1>         0.023821 
     57 H          -3.378266   -4.321700   -0.733362 H         1 <1>         0.209789 
     58 H           3.995793    1.321041   -1.998384 H         1 <1>         0.038428 
     59 H           4.915936   -0.230970   -3.517985 H         1 <1>         0.027304 
     60 H           6.070816   -0.858183   -2.311044 H         1 <1>         0.027304 
     61 H           4.185360   -2.406692   -2.211222 H         1 <1>         0.029416 
     62 H           2.998952   -1.073681   -2.223044 H         1 <1>         0.029416 
     63 H           6.047325    1.453982    1.033487 H         1 <1>         0.023698 
     64 H           5.702576   -0.151606    1.715049 H         1 <1>         0.023698 
     65 H           6.735310    0.005242    0.273743 H         1 <1>         0.023698 
     66 H           5.971852   -2.118491   -0.348950 H         1 <1>         0.210310 
     67 H           7.876061    2.538593   -2.299741 H         1 <1>         0.030588 
     68 H           7.066515    1.376329   -3.383170 H         1 <1>         0.030588 
     69 H           7.791349    0.822115   -1.837363 H         1 <1>         0.030588 
@<TRIPOS>BOND
     1    1    2 2    
     2    1    6 1    
     3    2    3 1    
     4    2   35 1    
     5    3    4 2    
     6    3   36 1    
     7    4    5 1    
     8    4   37 1    
     9    5    6 2    
    10    5    7 1    
    11    6   38 1    
    12    7    8 2    
    13    7    9 1    
    14    9   10 1    
    15   10   11 1    
    16   10   26 1    
    17   10   39 1    
    18   11   12 1    
    19   11   40 1    
    20   11   41 1    
    21   12   13 1    
    22   12   14 1    
    23   12   42 1    
    24   13   17 1    
    25   13   22 1    
    26   13   25 1    
    27   14   15 1    
    28   14   18 1    
    29   14   23 1    
    30   15   16 2    
    31   15   21 1    
    32   16   17 1    
    33   16   43 1    
    34   17   44 1    
    35   17   45 1    
    36   18   19 1    
    37   18   46 1    
    38   18   47 1    
    39   19   20 1    
    40   19   48 1    
    41   19   49 1    
    42   20   21 1    
    43   20   24 1    
    44   20   50 1    
    45   21   51 1    
    46   21   52 1    
    47   22   53 1    
    48   23   54 1    
    49   23   55 1    
    50   23   56 1    
    51   24   57 1    
    52   25   26 1    
    53   25   29 1    
    54   25   31 1    
    55   26   27 1    
    56   26   30 1    
    57   27   28 1    
    58   27   32 1    
    59   27   58 1    
    60   28   29 1    
    61   28   59 1    
    62   28   60 1    
    63   29   61 1    
    64   29   62 1    
    65   30   63 1    
    66   30   64 1    
    67   30   65 1    
    68   31   66 1    
    69   32   33 2    
    70   32   34 1    
    71   34   67 1    
    72   34   68 1    
    73   34   69 1    
@<TRIPOS>SUBSTRUCTURE
     1 ****        1 TEMP              0 ****  ****    0 ROOT 
@<TRIPOS>NORMAL
@<TRIPOS>FF_PBC
FORCE_FIELD_SETUP_FEATURE Force Field Setup information
v1.0  0 0.000000 0.000000 0.000000 0.000000 0.000000 0.000000 NONE 0 0 0 0 1 0 0 0 0 0 0 0 0
