@<TRIPOS>MOLECULE
MOL008672
   16    15     1     1     0
SMALL
GASTEIGER


@<TRIPOS>ATOM
      1 C           0.364470   -0.495355   -0.616081 C.3       1 <1>         0.011409 
      2 C          -0.980830    0.286962   -0.557910 C.3       1 <1>        -0.046886 
      3 C           1.528860    0.464986   -0.680180 C.2       1 <1>         0.123095 
      4 C           0.515392   -1.507190    0.553814 C.3       1 <1>        -0.055975 
      5 C          -1.119335    1.196485    0.692417 C.3       1 <1>        -0.064657 
      6 O           2.410496    0.450942    0.163542 O.2       1 <1>        -0.300751 
      7 H           0.375372   -1.075784   -1.555277 H         1 <1>         0.037163 
      8 H          -1.058787    0.920482   -1.457953 H         1 <1>         0.026912 
      9 H          -1.822561   -0.425311   -0.577533 H         1 <1>         0.026912 
     10 H           1.597647    1.191940   -1.489288 H         1 <1>         0.102894 
     11 H           1.418069   -2.120329    0.403207 H         1 <1>         0.023632 
     12 H          -0.356169   -2.178413    0.598815 H         1 <1>         0.023632 
     13 H           0.614578   -0.990212    1.519454 H         1 <1>         0.023632 
     14 H          -2.046826    1.786684    0.621705 H         1 <1>         0.022996 
     15 H          -1.169596    0.600140    1.615246 H         1 <1>         0.022996 
     16 H          -0.270878    1.893870    0.765722 H         1 <1>         0.022996 
@<TRIPOS>BOND
     1    1    2 1    
     2    1    3 1    
     3    1    4 1    
     4    1    7 1    
     5    2    5 1    
     6    2    8 1    
     7    2    9 1    
     8    3    6 2    
     9    3   10 1    
    10    4   11 1    
    11    4   12 1    
    12    4   13 1    
    13    5   14 1    
    14    5   15 1    
    15    5   16 1    
@<TRIPOS>SUBSTRUCTURE
     1 ****        1 TEMP              0 ****  ****    0 ROOT 
@<TRIPOS>NORMAL
@<TRIPOS>FF_PBC
FORCE_FIELD_SETUP_FEATURE Force Field Setup information
v1.0  0 0.000000 0.000000 0.000000 0.000000 0.000000 0.000000 NONE 0 0 0 0 1 0 0 0 0 0 0 0 0
