@<TRIPOS>MOLECULE
MOL000699
   24    24     1     1     0
SMALL
GASTEIGER


@<TRIPOS>ATOM
      1 C           0.047591    0.338549   -0.090124 C.ar      1 <1>        -0.044543 
      2 C           0.624604   -0.983938    0.263162 C.ar      1 <1>        -0.055404 
      3 C          -1.366235    0.480316   -0.130051 C.ar      1 <1>        -0.058308 
      4 C           0.973315    1.527534   -0.405567 C.3       1 <1>        -0.021506 
      5 C          -0.218332   -2.088143    0.556134 C.ar      1 <1>        -0.050180 
      6 C          -2.245665   -0.672357    0.175784 C.ar      1 <1>        -0.061245 
      7 C           0.763474    2.014619   -1.863909 C.3       1 <1>        -0.058650 
      8 C           0.759684    2.675604    0.616374 C.3       1 <1>        -0.058650 
      9 C          -1.689999   -1.916730    0.508220 C.ar      1 <1>        -0.058821 
     10 C           0.358088   -3.459470    0.922429 C.3       1 <1>        -0.039700 
     11 H           1.701100   -1.108373    0.297960 H         1 <1>         0.062299 
     12 H          -1.820204    1.430991   -0.384074 H         1 <1>         0.062038 
     13 H           2.022272    1.196494   -0.315741 H         1 <1>         0.034345 
     14 H          -3.323675   -0.550939    0.141792 H         1 <1>         0.061775 
     15 H           1.486622    2.808132   -2.109125 H         1 <1>         0.023545 
     16 H           0.912960    1.176976   -2.563055 H         1 <1>         0.023545 
     17 H          -0.250596    2.415029   -2.009007 H         1 <1>         0.023545 
     18 H           1.482739    3.486456    0.436243 H         1 <1>         0.023545 
     19 H           0.906534    2.297088    1.640070 H         1 <1>         0.023545 
     20 H          -0.254486    3.094353    0.540067 H         1 <1>         0.023545 
     21 H          -2.338243   -2.757937    0.731405 H         1 <1>         0.062020 
     22 H           1.458355   -3.457952    0.923480 H         1 <1>         0.027753 
     23 H           0.003751   -3.742408    1.924910 H         1 <1>         0.027753 
     24 H           0.006047   -4.204089    0.192923 H         1 <1>         0.027753 
@<TRIPOS>BOND
     1    1    2 1    
     2    1    3 2    
     3    1    4 1    
     4    2    5 2    
     5    2   11 1    
     6    3    6 1    
     7    3   12 1    
     8    4    7 1    
     9    4    8 1    
    10    4   13 1    
    11    5    9 1    
    12    5   10 1    
    13    6    9 2    
    14    6   14 1    
    15    7   15 1    
    16    7   16 1    
    17    7   17 1    
    18    8   18 1    
    19    8   19 1    
    20    8   20 1    
    21    9   21 1    
    22   10   22 1    
    23   10   23 1    
    24   10   24 1    
@<TRIPOS>SUBSTRUCTURE
     1 ****        1 TEMP              0 ****  ****    0 ROOT 
@<TRIPOS>NORMAL
@<TRIPOS>FF_PBC
FORCE_FIELD_SETUP_FEATURE Force Field Setup information
v1.0  0 0.000000 0.000000 0.000000 0.000000 0.000000 0.000000 NONE 0 0 0 0 1 0 0 0 0 0 0 0 0
