@<TRIPOS>MOLECULE
MOL008653
   14    14     1     1     0
SMALL
GASTEIGER


@<TRIPOS>ATOM
      1 C          -0.221687    0.021685    0.001189 C.ar      1 <1>         0.397207 
      2 C           0.514306    1.089076    0.780897 C.2       1 <1>         0.255682 
      3 C          -1.585007   -0.020812   -0.112636 C.ar      1 <1>         0.054376 
      4 O           0.410867   -1.023651   -0.678431 O.2       1 <1>        -0.209334 
      5 C           2.016541    1.100582    0.881950 C.3       1 <1>         0.007409 
      6 O          -0.130142    1.961055    1.340603 O.2       1 <1>        -0.283073 
      7 C          -1.871477   -1.199116   -0.940724 C.ar      1 <1>         0.043586 
      8 C          -0.649867   -1.738697   -1.235984 C.ar      1 <1>         0.322203 
      9 H          -2.303574    0.669354    0.317398 H         1 <1>         0.071526 
     10 H           2.466465    0.260476    0.332469 H         1 <1>         0.031231 
     11 H           2.403355    2.043076    0.466128 H         1 <1>         0.031231 
     12 H           2.312007    1.030411    1.939591 H         1 <1>         0.031231 
     13 H          -2.846279   -1.561911   -1.250708 H         1 <1>         0.070735 
     14 H          -0.515509   -2.631529   -1.841640 H         1 <1>         0.175991 
@<TRIPOS>BOND
     1    1    2 1    
     2    1    3 2    
     3    1    4 1    
     4    2    5 1    
     5    2    6 2    
     6    3    7 1    
     7    3    9 1    
     8    4    8 1    
     9    5   10 1    
    10    5   11 1    
    11    5   12 1    
    12    7    8 2    
    13    7   13 1    
    14    8   14 1    
@<TRIPOS>SUBSTRUCTURE
     1 ****        1 TEMP              0 ****  ****    0 ROOT 
@<TRIPOS>NORMAL
@<TRIPOS>FF_PBC
FORCE_FIELD_SETUP_FEATURE Force Field Setup information
v1.0  0 0.000000 0.000000 0.000000 0.000000 0.000000 0.000000 NONE 0 0 0 0 1 0 0 0 0 0 0 0 0
