@<TRIPOS>MOLECULE
MOL004039
   27    28     1     1     0
SMALL
GASTEIGER


@<TRIPOS>ATOM
      1 C           1.503238   -0.653398   -1.235360 C.2       1 <1>         0.163460 
      2 C           2.289426    0.612608   -1.439935 C.3       1 <1>         0.011006 
      3 C           1.329922    1.828801   -1.433168 C.3       1 <1>        -0.039424 
      4 C           0.489762    1.897114   -0.127203 C.3       1 <1>        -0.017623 
      5 C          -0.265459    0.582196    0.101040 C.ar      1 <1>        -0.034044 
      6 C          -1.521416    0.582729    0.889754 C.ar      1 <1>        -0.057403 
      7 C          -2.221332   -0.608712    1.106602 C.ar      1 <1>        -0.058534 
      8 C          -1.715042   -1.886719    0.547286 C.ar      1 <1>        -0.049768 
      9 C          -0.527561   -1.892076   -0.196423 C.ar      1 <1>        -0.048075 
     10 C           0.222867   -0.634080   -0.430191 C.ar      1 <1>         0.021065 
     11 O           1.906709   -1.697981   -1.721616 O.2       1 <1>        -0.292051 
     12 C          -2.474962   -3.197732    0.772993 C.3       1 <1>        -0.039689 
     13 C           1.342408    2.209464    1.131228 C.3       1 <1>        -0.058367 
     14 H           2.811247    0.566655   -2.409691 H         1 <1>         0.034526 
     15 H           3.051324    0.696480   -0.651527 H         1 <1>         0.034526 
     16 H           0.640529    1.733072   -2.289492 H         1 <1>         0.027508 
     17 H           1.904170    2.761050   -1.562295 H         1 <1>         0.027508 
     18 H          -0.246974    2.710228   -0.250903 H         1 <1>         0.034642 
     19 H          -1.899117    1.512536    1.302381 H         1 <1>         0.062065 
     20 H          -3.137639   -0.594326    1.687335 H         1 <1>         0.062029 
     21 H          -0.152636   -2.824310   -0.606197 H         1 <1>         0.062721 
     22 H          -3.347546   -3.050200    1.426547 H         1 <1>         0.027754 
     23 H          -2.819214   -3.585608   -0.197375 H         1 <1>         0.027754 
     24 H          -1.804733   -3.935404    1.239692 H         1 <1>         0.027754 
     25 H           1.951457    3.112211    0.969959 H         1 <1>         0.023554 
     26 H           2.007531    1.369796    1.381271 H         1 <1>         0.023554 
     27 H           0.682645    2.385707    1.995490 H         1 <1>         0.023554 
@<TRIPOS>BOND
     1    1    2 1    
     2    1   10 1    
     3    1   11 2    
     4    2    3 1    
     5    2   14 1    
     6    2   15 1    
     7    3    4 1    
     8    3   16 1    
     9    3   17 1    
    10    4    5 1    
    11    4   13 1    
    12    4   18 1    
    13    5    6 1    
    14    5   10 2    
    15    6    7 2    
    16    6   19 1    
    17    7    8 1    
    18    7   20 1    
    19    8    9 2    
    20    8   12 1    
    21    9   10 1    
    22    9   21 1    
    23   12   22 1    
    24   12   23 1    
    25   12   24 1    
    26   13   25 1    
    27   13   26 1    
    28   13   27 1    
@<TRIPOS>SUBSTRUCTURE
     1 ****        1 TEMP              0 ****  ****    0 ROOT 
@<TRIPOS>NORMAL
@<TRIPOS>FF_PBC
FORCE_FIELD_SETUP_FEATURE Force Field Setup information
v1.0  0 0.000000 0.000000 0.000000 0.000000 0.000000 0.000000 NONE 0 0 0 0 1 0 0 0 0 0 0 0 0
