@<TRIPOS>MOLECULE
MOL004668
   24    24     1     1     0
SMALL
GASTEIGER


@<TRIPOS>ATOM
      1 O          -0.299143    0.853680    1.009612 O.3       1 <1>        -0.340702 
      2 O           0.817258    0.923677   -1.691465 O.3       1 <1>        -0.386488 
      3 O          -0.182976   -1.616147   -2.412092 O.3       1 <1>        -0.386401 
      4 O          -2.556812   -1.486794   -0.852123 O.3       1 <1>        -0.384110 
      5 O          -2.559117    0.814922    1.164345 O.3       1 <1>        -0.364879 
      6 O           2.244321    1.310258    2.478799 O.3       1 <1>        -0.392366 
      7 C           0.989539   -0.196581   -0.798570 C.3       1 <1>         0.111896 
      8 C          -0.174982   -1.191469   -1.035087 C.3       1 <1>         0.114055 
      9 C           0.966129    0.233276    0.697463 C.3       1 <1>         0.112999 
     10 C          -1.512834   -0.509203   -0.655200 C.3       1 <1>         0.133927 
     11 C          -1.434526   -0.009411    0.815405 C.3       1 <1>         0.185395 
     12 C           2.101428    1.231512    1.046736 C.3       1 <1>         0.073015 
     13 H           1.533372    1.549082   -1.678693 H         1 <1>         0.210004 
     14 H          -0.916102   -2.195116   -2.601367 H         1 <1>         0.210005 
     15 H          -3.433401   -1.135910   -0.734725 H         1 <1>         0.210110 
     16 H          -3.389011    0.352330    1.157932 H         1 <1>         0.212561 
     17 H           2.916395    1.925066    2.758682 H         1 <1>         0.209508 
     18 H           1.931797   -0.720041   -1.039183 H         1 <1>         0.064673 
     19 H          -0.035340   -2.080961   -0.395125 H         1 <1>         0.064758 
     20 H           1.123546   -0.653061    1.335990 H         1 <1>         0.064668 
     21 H          -1.661631    0.358226   -1.320875 H         1 <1>         0.067089 
     22 H          -1.371963   -0.869277    1.505970 H         1 <1>         0.093545 
     23 H           1.851286    2.224363    0.637183 H         1 <1>         0.058370 
     24 H           3.052667    0.887478    0.606389 H         1 <1>         0.058370 
@<TRIPOS>BOND
     1    9    1 1    
     2    1   11 1    
     3    7    2 1    
     4    2   13 1    
     5    8    3 1    
     6    3   14 1    
     7   10    4 1    
     8    4   15 1    
     9   11    5 1    
    10    5   16 1    
    11   12    6 1    
    12    6   17 1    
    13    7    8 1    
    14    9    7 1    
    15    7   18 1    
    16    8   10 1    
    17    8   19 1    
    18    9   12 1    
    19    9   20 1    
    20   10   11 1    
    21   10   21 1    
    22   11   22 1    
    23   12   23 1    
    24   12   24 1    
@<TRIPOS>SUBSTRUCTURE
     1 ****        2 TEMP              0 ****  ****    0 ROOT 
@<TRIPOS>NORMAL
@<TRIPOS>FF_PBC
FORCE_FIELD_SETUP_FEATURE Force Field Setup information
v1.0  0 0.000000 0.000000 0.000000 0.000000 0.000000 0.000000 NONE 0 0 0 0 1 0 0 0 0 0 0 0 0
