@<TRIPOS>MOLECULE
MOL008661
   23    22     1     1     0
SMALL
GASTEIGER


@<TRIPOS>ATOM
      1 C          -1.393517   -1.921271    0.000020 C.2       1 <1>         0.155543 
      2 C          -0.096408   -1.149975    0.000141 C.3       1 <1>         0.009849 
      3 C          -1.389326   -3.398291    0.000009 C.2       1 <1>        -0.026316 
      4 O          -2.457281   -1.322427   -0.000066 O.2       1 <1>        -0.292701 
      5 C          -0.308226    0.388572   -0.000085 C.3       1 <1>        -0.046066 
      6 C          -2.501953   -4.142929   -0.000055 C.2       1 <1>        -0.095401 
      7 C           1.045658    1.150089    0.000081 C.3       1 <1>        -0.052912 
      8 C           0.827082    2.687782   -0.000139 C.3       1 <1>        -0.055900 
      9 C           2.177166    3.451069    0.000068 C.3       1 <1>        -0.065276 
     10 H           0.476891   -1.442306    0.893929 H         1 <1>         0.034488 
     11 H           0.477214   -1.442531   -0.893367 H         1 <1>         0.034488 
     12 H          -0.421659   -3.901239    0.000060 H         1 <1>         0.064639 
     13 H          -0.888073    0.672528   -0.894042 H         1 <1>         0.026937 
     14 H          -0.888406    0.672747    0.893587 H         1 <1>         0.026937 
     15 H          -2.446434   -5.231823   -0.000058 H         1 <1>         0.053584 
     16 H          -3.489524   -3.681793   -0.000102 H         1 <1>         0.053584 
     17 H           1.625206    0.865198    0.893666 H         1 <1>         0.026531 
     18 H           1.625549    0.864988   -0.893214 H         1 <1>         0.026531 
     19 H           0.249689    2.978468   -0.893685 H         1 <1>         0.026265 
     20 H           0.249304    2.978671    0.893092 H         1 <1>         0.026265 
     21 H           1.997826    4.537978   -0.000092 H         1 <1>         0.022978 
     22 H           2.764365    3.193400    0.895277 H         1 <1>         0.022978 
     23 H           2.764759    3.193194   -0.894825 H         1 <1>         0.022978 
@<TRIPOS>BOND
     1    1    2 1    
     2    1    3 1    
     3    1    4 2    
     4    2    5 1    
     5    2   10 1    
     6    2   11 1    
     7    3    6 2    
     8    3   12 1    
     9    5    7 1    
    10    5   13 1    
    11    5   14 1    
    12    6   15 1    
    13    6   16 1    
    14    7    8 1    
    15    7   17 1    
    16    7   18 1    
    17    8    9 1    
    18    8   19 1    
    19    8   20 1    
    20    9   21 1    
    21    9   22 1    
    22    9   23 1    
@<TRIPOS>SUBSTRUCTURE
     1 ****        1 TEMP              0 ****  ****    0 ROOT 
@<TRIPOS>NORMAL
@<TRIPOS>FF_PBC
FORCE_FIELD_SETUP_FEATURE Force Field Setup information
v1.0  0 0.000000 0.000000 0.000000 0.000000 0.000000 0.000000 NONE 0 0 0 0 1 0 0 0 0 0 0 0 0
