@<TRIPOS>MOLECULE
MOL002336
   47    46     1     1     0
SMALL
GASTEIGER


@<TRIPOS>ATOM
      1 C           0.626749   -1.342187   -1.009425 C.3       1 <1>        -0.043879 
      2 C           1.954414   -0.608014   -0.636160 C.3       1 <1>        -0.050451 
      3 C          -0.576945   -0.355458   -1.125102 C.3       1 <1>        -0.050451 
      4 C           0.327328   -2.524072   -0.042230 C.3       1 <1>        -0.062415 
      5 C           1.937191    0.129522    0.733457 C.3       1 <1>        -0.052574 
      6 C          -1.822872   -0.977970   -1.820157 C.3       1 <1>        -0.052582 
      7 C           3.312538    0.784589    1.041770 C.3       1 <1>        -0.050459 
      8 C          -2.939931    0.078059   -2.056088 C.3       1 <1>        -0.050700 
      9 C           3.333505    1.706907    2.302547 C.3       1 <1>        -0.044128 
     10 C          -4.143886   -0.458771   -2.890288 C.3       1 <1>        -0.046721 
     11 C           2.905996    0.978017    3.618130 C.3       1 <1>        -0.053312 
     12 C           4.766492    2.297734    2.458875 C.3       1 <1>        -0.062423 
     13 C          -4.884706   -1.628894   -2.182358 C.3       1 <1>        -0.062665 
     14 C          -5.144524    0.695950   -3.179194 C.3       1 <1>        -0.062665 
     15 C           1.400799    1.147484    3.970232 C.3       1 <1>        -0.065034 
     16 H           0.799151   -1.778854   -2.009990 H         1 <1>         0.029813 
     17 H           2.183477    0.126086   -1.426609 H         1 <1>         0.026785 
     18 H           2.776498   -1.343226   -0.626696 H         1 <1>         0.026785 
     19 H          -0.252131    0.517359   -1.715049 H         1 <1>         0.026785 
     20 H          -0.876040   -0.001181   -0.125709 H         1 <1>         0.026785 
     21 H          -0.447149   -3.184786   -0.458759 H         1 <1>         0.023242 
     22 H           1.231595   -3.133022    0.112903 H         1 <1>         0.023242 
     23 H          -0.022979   -2.161672    0.935341 H         1 <1>         0.023242 
     24 H           1.704144   -0.598516    1.523453 H         1 <1>         0.026545 
     25 H           1.169540    0.918253    0.723834 H         1 <1>         0.026545 
     26 H          -2.218690   -1.785047   -1.186852 H         1 <1>         0.026545 
     27 H          -1.526065   -1.403503   -2.792712 H         1 <1>         0.026545 
     28 H           3.603724    1.392556    0.169124 H         1 <1>         0.026785 
     29 H           4.065304   -0.012441    1.159761 H         1 <1>         0.026785 
     30 H          -2.499402    0.928693   -2.602089 H         1 <1>         0.026777 
     31 H          -3.299945    0.452349   -1.083830 H         1 <1>         0.026777 
     32 H           2.655516    2.560687    2.127037 H         1 <1>         0.029804 
     33 H          -3.768452   -0.825014   -3.862316 H         1 <1>         0.029548 
     34 H           3.165990   -0.090871    3.556360 H         1 <1>         0.026521 
     35 H           3.458802    1.394554    4.476576 H         1 <1>         0.026521 
     36 H           4.799754    3.029511    3.281500 H         1 <1>         0.023242 
     37 H           5.082082    2.814270    1.538777 H         1 <1>         0.023242 
     38 H           5.489663    1.495958    2.675234 H         1 <1>         0.023242 
     39 H          -5.788636   -1.908984   -2.745316 H         1 <1>         0.023233 
     40 H          -4.248962   -2.523937   -2.117879 H         1 <1>         0.023233 
     41 H          -5.185810   -1.332187   -1.166147 H         1 <1>         0.023233 
     42 H          -5.978461    0.340662   -3.804851 H         1 <1>         0.023233 
     43 H          -4.643102    1.516807   -3.715582 H         1 <1>         0.023233 
     44 H          -5.556819    1.091664   -2.238463 H         1 <1>         0.023233 
     45 H           1.172601    0.598820    4.898065 H         1 <1>         0.022986 
     46 H           1.166428    2.211317    4.134606 H         1 <1>         0.022986 
     47 H           0.736124    0.770305    3.182664 H         1 <1>         0.022986 
@<TRIPOS>BOND
     1    1    2 1    
     2    1    3 1    
     3    1    4 1    
     4    1   16 1    
     5    2    5 1    
     6    2   17 1    
     7    2   18 1    
     8    3    6 1    
     9    3   19 1    
    10    3   20 1    
    11    4   21 1    
    12    4   22 1    
    13    4   23 1    
    14    5    7 1    
    15    5   24 1    
    16    5   25 1    
    17    6    8 1    
    18    6   26 1    
    19    6   27 1    
    20    7    9 1    
    21    7   28 1    
    22    7   29 1    
    23    8   10 1    
    24    8   30 1    
    25    8   31 1    
    26    9   11 1    
    27    9   12 1    
    28    9   32 1    
    29   10   13 1    
    30   10   14 1    
    31   10   33 1    
    32   11   15 1    
    33   11   34 1    
    34   11   35 1    
    35   12   36 1    
    36   12   37 1    
    37   12   38 1    
    38   13   39 1    
    39   13   40 1    
    40   13   41 1    
    41   14   42 1    
    42   14   43 1    
    43   14   44 1    
    44   15   45 1    
    45   15   46 1    
    46   15   47 1    
@<TRIPOS>SUBSTRUCTURE
     1 ****        1 TEMP              0 ****  ****    0 ROOT 
@<TRIPOS>NORMAL
@<TRIPOS>FF_PBC
FORCE_FIELD_SETUP_FEATURE Force Field Setup information
v1.0  0 0.000000 0.000000 0.000000 0.000000 0.000000 0.000000 NONE 0 0 0 0 1 0 0 0 0 0 0 0 0
