@<TRIPOS>MOLECULE
MOL004971
   23    22     1     1     0
SMALL
GASTEIGER


@<TRIPOS>ATOM
      1 C          -0.272472   -0.668754    0.579341 C.3       1 <1>        -0.044137 
      2 C           1.133642   -0.038366    0.324547 C.3       1 <1>        -0.050717 
      3 C          -1.381542    0.415546    0.740349 C.3       1 <1>        -0.053312 
      4 C          -0.636690   -1.724348   -0.503774 C.3       1 <1>        -0.062423 
      5 C           1.265887    0.784096   -0.988666 C.3       1 <1>        -0.055669 
      6 C          -2.724165   -0.147617    1.280949 C.3       1 <1>        -0.065034 
      7 C           2.706856    1.334653   -1.159134 C.3       1 <1>        -0.065268 
      8 H          -0.192136   -1.205570    1.541546 H         1 <1>         0.029804 
      9 H           1.386109    0.622076    1.170519 H         1 <1>         0.026777 
     10 H           1.884741   -0.846066    0.304666 H         1 <1>         0.026777 
     11 H          -1.027593    1.179961    1.450976 H         1 <1>         0.026521 
     12 H          -1.577475    0.909815   -0.223264 H         1 <1>         0.026521 
     13 H          -1.506179   -2.322297   -0.193041 H         1 <1>         0.023242 
     14 H           0.203898   -2.419462   -0.659553 H         1 <1>         0.023242 
     15 H          -0.877169   -1.243791   -1.463162 H         1 <1>         0.023242 
     16 H           1.035155    0.153342   -1.861876 H         1 <1>         0.026273 
     17 H           0.570672    1.638784   -0.982004 H         1 <1>         0.026273 
     18 H          -3.419707    0.682261    1.487689 H         1 <1>         0.022986 
     19 H          -3.201055   -0.814530    0.546558 H         1 <1>         0.022986 
     20 H          -2.560928   -0.704508    2.217516 H         1 <1>         0.022986 
     21 H           2.788270    1.911024   -2.094908 H         1 <1>         0.022978 
     22 H           2.968111    1.995973   -0.318448 H         1 <1>         0.022978 
     23 H           3.433769    0.507980   -1.196226 H         1 <1>         0.022978 
@<TRIPOS>BOND
     1    1    2 1    
     2    1    3 1    
     3    1    4 1    
     4    1    8 1    
     5    2    5 1    
     6    2    9 1    
     7    2   10 1    
     8    3    6 1    
     9    3   11 1    
    10    3   12 1    
    11    4   13 1    
    12    4   14 1    
    13    4   15 1    
    14    5    7 1    
    15    5   16 1    
    16    5   17 1    
    17    6   18 1    
    18    6   19 1    
    19    6   20 1    
    20    7   21 1    
    21    7   22 1    
    22    7   23 1    
@<TRIPOS>SUBSTRUCTURE
     1 ****        1 TEMP              0 ****  ****    0 ROOT 
@<TRIPOS>NORMAL
@<TRIPOS>FF_PBC
FORCE_FIELD_SETUP_FEATURE Force Field Setup information
v1.0  0 0.000000 0.000000 0.000000 0.000000 0.000000 0.000000 NONE 0 0 0 0 1 0 0 0 0 0 0 0 0
