@<TRIPOS>MOLECULE
MOL003839
   38    39     1     1     0
SMALL
GASTEIGER


@<TRIPOS>ATOM
      1 C          -0.736568    1.309594    0.906473 C.2       1 <1>        -0.059979 
      2 C          -0.772763   -0.203819    0.915002 C.3       1 <1>        -0.016129 
      3 C          -0.136295   -0.741349   -0.399090 C.3       1 <1>        -0.039715 
      4 C           1.419087   -0.755971   -0.364623 C.3       1 <1>        -0.019567 
      5 C           2.087518    0.638109   -0.199225 C.3       1 <1>        -0.042420 
      6 C           1.729509    1.344742    1.136937 C.3       1 <1>        -0.024148 
      7 C           0.386857    2.034934    1.029756 C.2       1 <1>        -0.008654 
      8 C          -2.105479    1.921534    0.728044 C.3       1 <1>        -0.030566 
      9 C          -2.959346    0.711991    0.288103 C.3       1 <1>        -0.046200 
     10 C          -2.304890   -0.451967    1.061525 C.3       1 <1>        -0.037038 
     11 C           0.370590    3.518072    1.056479 C.2       1 <1>         0.146218 
     12 O          -0.636934    4.163541    1.294685 O.2       1 <1>        -0.296035 
     13 C          -2.835489   -1.841820    0.619489 C.3       1 <1>        -0.061864 
     14 C           1.948844   -1.446327   -1.611180 C.2       1 <1>        -0.076582 
     15 C           2.672501   -2.758626   -1.400946 C.3       1 <1>        -0.043777 
     16 C           1.784410   -0.928264   -2.836793 C.2       1 <1>        -0.099446 
     17 H          -0.267073   -0.647155    1.788308 H         1 <1>         0.034855 
     18 H          -0.428486   -1.792546   -0.541240 H         1 <1>         0.027676 
     19 H          -0.502312   -0.164862   -1.262053 H         1 <1>         0.027676 
     20 H           1.719023   -1.353889    0.513548 H         1 <1>         0.034569 
     21 H           3.178738    0.473052   -0.224866 H         1 <1>         0.027410 
     22 H           1.831570    1.305438   -1.036825 H         1 <1>         0.027410 
     23 H           2.509226    2.096107    1.343195 H         1 <1>         0.031431 
     24 H           1.750756    0.642311    1.983762 H         1 <1>         0.031431 
     25 H          -2.144185    2.720201   -0.029829 H         1 <1>         0.031035 
     26 H          -2.457808    2.306281    1.698681 H         1 <1>         0.031035 
     27 H          -4.028917    0.838509    0.523275 H         1 <1>         0.027105 
     28 H          -2.852961    0.547132   -0.796552 H         1 <1>         0.027105 
     29 H          -2.564749   -0.323265    2.129470 H         1 <1>         0.030393 
     30 H           1.278225    4.091048    0.871505 H         1 <1>         0.107802 
     31 H          -2.265119   -2.639265    1.120304 H         1 <1>         0.023260 
     32 H          -3.895570   -1.939798    0.901427 H         1 <1>         0.023260 
     33 H          -2.766677   -1.976167   -0.470119 H         1 <1>         0.023260 
     34 H           3.549795   -2.595943   -0.756791 H         1 <1>         0.027436 
     35 H           3.018593   -3.208416   -2.343842 H         1 <1>         0.027436 
     36 H           1.996177   -3.474130   -0.909087 H         1 <1>         0.027436 
     37 H           2.168641   -1.430683   -3.723734 H         1 <1>         0.053440 
     38 H           1.261463    0.011865   -3.003068 H         1 <1>         0.053440 
@<TRIPOS>BOND
     1    1    2 1    
     2    1    7 2    
     3    1    8 1    
     4    2    3 1    
     5    2   10 1    
     6    2   17 1    
     7    3    4 1    
     8    3   18 1    
     9    3   19 1    
    10    4    5 1    
    11    4   14 1    
    12    4   20 1    
    13    5    6 1    
    14    5   21 1    
    15    5   22 1    
    16    6    7 1    
    17    6   23 1    
    18    6   24 1    
    19    7   11 1    
    20    8    9 1    
    21    8   25 1    
    22    8   26 1    
    23    9   10 1    
    24    9   27 1    
    25    9   28 1    
    26   10   13 1    
    27   10   29 1    
    28   11   12 2    
    29   11   30 1    
    30   13   31 1    
    31   13   32 1    
    32   13   33 1    
    33   14   15 1    
    34   14   16 2    
    35   15   34 1    
    36   15   35 1    
    37   15   36 1    
    38   16   37 1    
    39   16   38 1    
@<TRIPOS>SUBSTRUCTURE
     1 ****        1 TEMP              0 ****  ****    0 ROOT 
@<TRIPOS>NORMAL
@<TRIPOS>FF_PBC
FORCE_FIELD_SETUP_FEATURE Force Field Setup information
v1.0  0 0.000000 0.000000 0.000000 0.000000 0.000000 0.000000 NONE 0 0 0 0 1 0 0 0 0 0 0 0 0
