@<TRIPOS>MOLECULE
MOL002298
   32    34     1     1     0
SMALL
GASTEIGER


@<TRIPOS>ATOM
      1 C          -1.929991    0.749750   -0.389171 C.3       1 <1>         0.081539 
      2 C          -1.915245   -0.590865    0.394963 C.3       1 <1>         0.056187 
      3 C          -3.214903   -1.343093    0.230026 C.2       1 <1>        -0.072398 
      4 C          -4.364230   -0.678939    0.066560 C.2       1 <1>        -0.062848 
      5 C          -4.373035    0.792826    0.023521 C.2       1 <1>        -0.035629 
      6 C          -3.244189    1.480933   -0.174379 C.2       1 <1>         0.061440 
      7 O          -3.286160    2.820050   -0.207646 O.3       1 <1>        -0.363363 
      8 C          -0.678568    1.528343   -0.057606 C.2       1 <1>         0.176530 
      9 C           0.651700    0.813551   -0.006981 C.ar      1 <1>         0.058256 
     10 C          -0.696778   -1.392179    0.000431 C.2       1 <1>         0.171742 
     11 C           0.643550   -0.694662   -0.010910 C.ar      1 <1>         0.031307 
     12 C           1.917128   -1.451097   -0.021178 C.ar      1 <1>        -0.045049 
     13 C           3.244078   -0.702989    0.004805 C.ar      1 <1>        -0.019056 
     14 C           3.240120    0.779690    0.041943 C.ar      1 <1>        -0.025854 
     15 C           1.937996    1.553704    0.037856 C.ar      1 <1>         0.084063 
     16 O           1.973949    2.949161    0.076391 O.3       1 <1>        -0.359104 
     17 C           4.579867   -1.452080   -0.006047 C.3       1 <1>         0.069330 
     18 O           4.369144   -2.874827   -0.039114 O.3       1 <1>        -0.390415 
     19 O          -0.773971   -2.574066   -0.292171 O.2       1 <1>        -0.291375 
     20 O          -0.721208    2.731466    0.146434 O.2       1 <1>        -0.291200 
     21 H          -1.886352    0.530321   -1.467584 H         1 <1>         0.045952 
     22 H          -1.822405   -0.372946    1.471070 H         1 <1>         0.043451 
     23 H          -3.229945   -2.433630    0.266326 H         1 <1>         0.057939 
     24 H          -5.308117   -1.217996   -0.027936 H         1 <1>         0.061537 
     25 H          -5.314049    1.328860    0.148559 H         1 <1>         0.064001 
     26 H          -2.447983    3.253451   -0.336990 H         1 <1>         0.216906 
     27 H           1.897631   -2.535096   -0.047233 H         1 <1>         0.062815 
     28 H           4.176664    1.325062    0.073165 H         1 <1>         0.064686 
     29 H           1.110676    3.346834    0.144196 H         1 <1>         0.217340 
     30 H           5.146053   -1.127178   -0.894740 H         1 <1>         0.060711 
     31 H           5.138175   -1.168094    0.901438 H         1 <1>         0.060711 
     32 H           5.180598   -3.373966   -0.047397 H         1 <1>         0.209847 
@<TRIPOS>BOND
     1    1    2 1    
     2    1    6 1    
     3    1    8 1    
     4    1   21 1    
     5    2    3 1    
     6    2   10 1    
     7    2   22 1    
     8    3    4 2    
     9    3   23 1    
    10    4    5 1    
    11    4   24 1    
    12    5    6 2    
    13    5   25 1    
    14    6    7 1    
    15    7   26 1    
    16    8    9 1    
    17    8   20 2    
    18    9   11 2    
    19    9   15 1    
    20   10   11 1    
    21   10   19 2    
    22   11   12 1    
    23   12   13 2    
    24   12   27 1    
    25   13   14 1    
    26   13   17 1    
    27   14   15 2    
    28   14   28 1    
    29   15   16 1    
    30   16   29 1    
    31   17   18 1    
    32   17   30 1    
    33   17   31 1    
    34   18   32 1    
@<TRIPOS>SUBSTRUCTURE
     1 ****        1 TEMP              0 ****  ****    0 ROOT 
@<TRIPOS>NORMAL
@<TRIPOS>FF_PBC
FORCE_FIELD_SETUP_FEATURE Force Field Setup information
v1.0  0 0.000000 0.000000 0.000000 0.000000 0.000000 0.000000 NONE 0 0 0 0 1 0 0 0 0 0 0 0 0
