@<TRIPOS>MOLECULE
MOL004613
   56    60     1     1     0
SMALL
GASTEIGER


@<TRIPOS>ATOM
      1 C          -0.865058   -2.784821    1.426382 C.2       1 <1>         0.294689 
      2 O          -0.537497   -1.570076    0.984329 O.3       1 <1>        -0.299442 
      3 C          -0.927326   -1.541027   -0.409375 C.3       1 <1>         0.111409 
      4 C          -1.543429   -2.899081   -0.636501 C.2       1 <1>        -0.023591 
      5 C          -2.154067   -3.336912   -1.938993 C.3       1 <1>        -0.024527 
      6 C          -2.115129   -4.892147   -2.017680 C.3       1 <1>        -0.030640 
      7 C          -2.343415   -5.598829   -0.695607 C.2       1 <1>        -0.082971 
      8 C          -2.037681   -5.024626    0.475259 C.2       1 <1>        -0.052741 
      9 C          -1.503478   -3.659046    0.447621 C.2       1 <1>         0.048204 
     10 C           2.399205   -1.282089    0.188215 C.2       1 <1>         0.295473 
     11 O           3.312769   -0.524418    0.791176 O.3       1 <1>        -0.274201 
     12 C           2.891409    0.699666    0.438838 C.2       1 <1>         0.086163 
     13 C           1.694352    0.718223   -0.435296 C.2       1 <1>        -0.007848 
     14 C           0.930007    1.844063   -1.081820 C.3       1 <1>        -0.024498 
     15 C           0.014289    1.309805   -2.220107 C.3       1 <1>        -0.045116 
     16 C          -0.665941   -0.070655   -1.981012 C.3       1 <1>        -0.024964 
     17 C           0.237796   -1.153765   -1.348719 C.3       1 <1>         0.027180 
     18 C           1.381466   -0.566408   -0.575406 C.2       1 <1>         0.036461 
     19 C          -1.732941   -0.298180   -0.870722 C.3       1 <1>        -0.003301 
     20 O          -0.650897   -3.133762    2.575105 O.2       1 <1>        -0.259196 
     21 O           2.415891   -2.499481    0.263407 O.2       1 <1>        -0.259156 
     22 C          -1.878135    0.775448    0.240586 C.3       1 <1>        -0.047223 
     23 C          -3.021671    0.406186    1.225440 C.3       1 <1>        -0.055551 
     24 C          -3.145975    1.455747    2.360596 C.3       1 <1>        -0.065266 
     25 C           3.574354    1.756787    0.902285 C.2       1 <1>        -0.053070 
     26 C           3.267849    3.215703    0.661411 C.3       1 <1>        -0.032278 
     27 C           4.021087    4.135011    1.661322 C.3       1 <1>        -0.052380 
     28 C           3.683585    5.629747    1.419815 C.3       1 <1>        -0.064997 
     29 H          -1.074274   -0.439229   -2.940085 H         1 <1>         0.031139 
     30 H           0.568124   -1.949809   -2.034658 H         1 <1>         0.038512 
     31 H          -1.640820   -2.903542   -2.810838 H         1 <1>         0.031415 
     32 H          -3.199741   -2.991023   -1.939506 H         1 <1>         0.031415 
     33 H          -2.853213   -5.233716   -2.761909 H         1 <1>         0.031047 
     34 H          -1.116966   -5.208891   -2.361166 H         1 <1>         0.031047 
     35 H          -2.747227   -6.612745   -0.701141 H         1 <1>         0.057233 
     36 H          -2.170819   -5.536858    1.428443 H         1 <1>         0.062216 
     37 H           1.633517    2.567535   -1.521241 H         1 <1>         0.031417 
     38 H           0.337323    2.379003   -0.328526 H         1 <1>         0.031417 
     39 H          -0.748760    2.059908   -2.484208 H         1 <1>         0.027135 
     40 H           0.660072    1.165747   -3.103930 H         1 <1>         0.027135 
     41 H          -2.717317   -0.552189   -1.297893 H         1 <1>         0.033503 
     42 H          -0.947215    0.868335    0.818407 H         1 <1>         0.026894 
     43 H          -2.112367    1.744542   -0.227585 H         1 <1>         0.026894 
     44 H          -3.978845    0.355262    0.680034 H         1 <1>         0.026274 
     45 H          -2.831001   -0.583210    1.672268 H         1 <1>         0.026274 
     46 H          -3.966366    1.181675    3.042696 H         1 <1>         0.022978 
     47 H          -2.211417    1.506372    2.941018 H         1 <1>         0.022978 
     48 H          -3.356600    2.452083    1.941665 H         1 <1>         0.022978 
     49 H           4.444461    1.525139    1.518610 H         1 <1>         0.059779 
     50 H           2.191291    3.399418    0.785368 H         1 <1>         0.030812 
     51 H           3.573023    3.479262   -0.363237 H         1 <1>         0.030812 
     52 H           5.109123    3.991188    1.549425 H         1 <1>         0.026559 
     53 H           3.740527    3.862365    2.692863 H         1 <1>         0.026559 
     54 H           4.231611    6.262459    2.135902 H         1 <1>         0.022987 
     55 H           2.604782    5.807717    1.550818 H         1 <1>         0.022987 
     56 H           3.969653    5.927882    0.399047 H         1 <1>         0.022987 
@<TRIPOS>BOND
     1    2    1 1    
     2    9    1 1    
     3    1   20 2    
     4    3    2 1    
     5    3    4 1    
     6   17    3 1    
     7    3   19 1    
     8    4    5 1    
     9    4    9 2    
    10    5    6 1    
    11    5   31 1    
    12    5   32 1    
    13    6    7 1    
    14    6   33 1    
    15    6   34 1    
    16    8    7 2    
    17    7   35 1    
    18    9    8 1    
    19    8   36 1    
    20   10   11 1    
    21   18   10 1    
    22   10   21 2    
    23   12   11 1    
    24   13   12 1    
    25   12   25 2    
    26   14   13 1    
    27   13   18 2    
    28   15   14 1    
    29   14   37 1    
    30   14   38 1    
    31   16   15 1    
    32   15   39 1    
    33   15   40 1    
    34   16   17 1    
    35   16   19 1    
    36   16   29 1    
    37   17   18 1    
    38   17   30 1    
    39   19   22 1    
    40   19   41 1    
    41   22   23 1    
    42   22   42 1    
    43   22   43 1    
    44   23   24 1    
    45   23   44 1    
    46   23   45 1    
    47   24   46 1    
    48   24   47 1    
    49   24   48 1    
    50   25   26 1    
    51   25   49 1    
    52   26   27 1    
    53   26   50 1    
    54   26   51 1    
    55   27   28 1    
    56   27   52 1    
    57   27   53 1    
    58   28   54 1    
    59   28   55 1    
    60   28   56 1    
@<TRIPOS>SUBSTRUCTURE
     1 ****       10 TEMP              0 ****  ****    0 ROOT 
@<TRIPOS>NORMAL
@<TRIPOS>FF_PBC
FORCE_FIELD_SETUP_FEATURE Force Field Setup information
v1.0  0 0.000000 0.000000 0.000000 0.000000 0.000000 0.000000 NONE 0 0 0 0 1 0 0 0 0 0 0 0 0
