@<TRIPOS>MOLECULE
MOL007934
   26    26     1     1     0
SMALL
GASTEIGER


@<TRIPOS>ATOM
      1 C          -1.673278    0.765586   -0.000062 C.2       1 <1>         0.258715 
      2 O          -1.598628    1.983376   -0.000193 O.2       1 <1>        -0.282770 
      3 O          -4.228674    0.875897   -0.000099 O.2       1 <1>        -0.209323 
      4 C          -3.046329    0.127975   -0.000012 C.ar      1 <1>         0.397491 
      5 C          -3.285229   -1.223399    0.000121 C.ar      1 <1>         0.054386 
      6 C          -4.747627   -1.362270    0.000118 C.ar      1 <1>         0.043586 
      7 C          -5.234928   -0.085355   -0.000014 C.ar      1 <1>         0.322203 
      8 C          -0.416102   -0.071038    0.000047 C.3       1 <1>         0.019265 
      9 C           0.876622    0.790270   -0.000070 C.3       1 <1>        -0.045743 
     10 C           2.152117   -0.096387    0.000066 C.3       1 <1>        -0.052908 
     11 C           3.441560    0.769460   -0.000099 C.3       1 <1>        -0.055900 
     12 C           4.714986   -0.116005    0.000067 C.3       1 <1>        -0.065276 
     13 H          -2.557388   -2.027649    0.000210 H         1 <1>         0.071526 
     14 H          -5.318509   -2.285365    0.000203 H         1 <1>         0.070735 
     15 H          -6.294416    0.158374   -0.000050 H         1 <1>         0.175991 
     16 H          -0.422955   -0.712923    0.895147 H         1 <1>         0.034808 
     17 H          -0.422955   -0.713160   -0.894884 H         1 <1>         0.034808 
     18 H           0.882019    1.436162   -0.893995 H         1 <1>         0.026941 
     19 H           0.882013    1.436420    0.893669 H         1 <1>         0.026941 
     20 H           2.149515   -0.742210    0.893699 H         1 <1>         0.026531 
     21 H           2.149497   -0.742515   -0.893347 H         1 <1>         0.026531 
     22 H           3.453269    1.415913   -0.893680 H         1 <1>         0.026265 
     23 H           3.453273    1.416253    0.893236 H         1 <1>         0.026265 
     24 H           5.616853    0.516622   -0.000070 H         1 <1>         0.022978 
     25 H           4.737556   -0.756936    0.895230 H         1 <1>         0.022978 
     26 H           4.737539   -0.757298   -0.894838 H         1 <1>         0.022978 
@<TRIPOS>BOND
     1    1    2 2    
     2    1    4 1    
     3    1    8 1    
     4    4    3 1    
     5    3    7 1    
     6    4    5 2    
     7    5    6 1    
     8    5   13 1    
     9    6    7 2    
    10    6   14 1    
    11    7   15 1    
    12    8    9 1    
    13    8   16 1    
    14    8   17 1    
    15    9   10 1    
    16    9   18 1    
    17    9   19 1    
    18   10   11 1    
    19   10   20 1    
    20   10   21 1    
    21   11   12 1    
    22   11   22 1    
    23   11   23 1    
    24   12   24 1    
    25   12   25 1    
    26   12   26 1    
@<TRIPOS>SUBSTRUCTURE
     1 ****        1 TEMP              0 ****  ****    0 ROOT 
@<TRIPOS>NORMAL
@<TRIPOS>FF_PBC
FORCE_FIELD_SETUP_FEATURE Force Field Setup information
v1.0  0 0.000000 0.000000 0.000000 0.000000 0.000000 0.000000 NONE 0 0 0 0 1 0 0 0 0 0 0 0 0
