@<TRIPOS>MOLECULE
MOL001888
   25    25     1     1     0
SMALL
GASTEIGER


@<TRIPOS>ATOM
      1 C           1.068967   -0.356012    0.452009 C.3       1 <1>         0.060351 
      2 C          -0.206302    0.527441    0.631419 C.3       1 <1>        -0.008905 
      3 C          -0.653797    1.075130   -0.759487 C.3       1 <1>        -0.045525 
      4 C          -0.848189   -0.041596   -1.819960 C.3       1 <1>        -0.052412 
      5 C           0.451897   -0.870668   -1.973369 C.3       1 <1>        -0.050688 
      6 C           0.878068   -1.473749   -0.610400 C.3       1 <1>        -0.026350 
      7 C           0.146074    1.736277    1.552878 C.3       1 <1>        -0.057462 
      8 C          -1.361056   -0.263232    1.322983 C.3       1 <1>        -0.057462 
      9 O           1.426165   -0.932891    1.722115 O.3       1 <1>        -0.391257 
     10 H           1.893610    0.294380    0.108682 H         1 <1>         0.059842 
     11 H           0.114795    1.767556   -1.140717 H         1 <1>         0.027123 
     12 H          -1.591789    1.644620   -0.655181 H         1 <1>         0.027123 
     13 H          -1.099983    0.418226   -2.790946 H         1 <1>         0.026547 
     14 H          -1.684417   -0.702593   -1.545771 H         1 <1>         0.026547 
     15 H           1.257588   -0.221262   -2.354802 H         1 <1>         0.026608 
     16 H           0.292686   -1.680510   -2.705383 H         1 <1>         0.026608 
     17 H           1.829098   -2.015857   -0.744036 H         1 <1>         0.029020 
     18 H           0.131417   -2.205446   -0.268532 H         1 <1>         0.029020 
     19 H           0.958205    2.342970    1.123761 H         1 <1>         0.023578 
     20 H          -0.729608    2.389455    1.689049 H         1 <1>         0.023578 
     21 H           0.472377    1.386603    2.544453 H         1 <1>         0.023578 
     22 H          -1.046021   -0.607282    2.319782 H         1 <1>         0.023578 
     23 H          -1.682733   -1.145732    0.756944 H         1 <1>         0.023578 
     24 H          -2.240770    0.385441    1.452676 H         1 <1>         0.023578 
     25 H           2.224016   -1.451167    1.691630 H         1 <1>         0.209800 
@<TRIPOS>BOND
     1    1    2 1    
     2    1    6 1    
     3    1    9 1    
     4    1   10 1    
     5    2    3 1    
     6    2    7 1    
     7    2    8 1    
     8    3    4 1    
     9    3   11 1    
    10    3   12 1    
    11    4    5 1    
    12    4   13 1    
    13    4   14 1    
    14    5    6 1    
    15    5   15 1    
    16    5   16 1    
    17    6   17 1    
    18    6   18 1    
    19    7   19 1    
    20    7   20 1    
    21    7   21 1    
    22    8   22 1    
    23    8   23 1    
    24    8   24 1    
    25    9   25 1    
@<TRIPOS>SUBSTRUCTURE
     1 ****        1 TEMP              0 ****  ****    0 ROOT 
@<TRIPOS>NORMAL
@<TRIPOS>FF_PBC
FORCE_FIELD_SETUP_FEATURE Force Field Setup information
v1.0  0 0.000000 0.000000 0.000000 0.000000 0.000000 0.000000 NONE 0 0 0 0 1 0 0 0 0 0 0 0 0
