@<TRIPOS>MOLECULE
MOL002923
   65    67     1     1     0
SMALL
GASTEIGER


@<TRIPOS>ATOM
      1 O          -1.382044    0.079994   -0.898570 O.3       1 <1>        -0.339411 
      2 O           1.770913   -1.104669   -1.862414 O.3       1 <1>        -0.339962 
      3 O          -2.910751    1.074229    0.449790 O.3       1 <1>        -0.343068 
      4 O           0.576265    1.796757    0.072288 O.3       1 <1>        -0.376397 
      5 O           2.848711    0.919139   -1.334096 O.3       1 <1>        -0.348421 
      6 O           0.769052   -2.493045    0.560010 O.3       1 <1>        -0.386456 
      7 O          -3.394254    1.206946   -2.472072 O.3       1 <1>        -0.384104 
      8 O          -6.086014    0.264990   -2.242679 O.3       1 <1>        -0.386402 
      9 O          -6.605926    1.386900    0.343971 O.3       1 <1>        -0.386579 
     10 O          -1.544222   -2.445199   -3.020592 O.3       1 <1>        -0.392366 
     11 O           5.104180   -1.958208    1.607761 O.3       1 <1>        -0.357262 
     12 O           4.646782   -1.043441    4.282281 O.3       1 <1>        -0.345349 
     13 C          -0.392284   -0.459747    0.003291 C.3       1 <1>         0.127555 
     14 C           0.908328    0.389812   -0.034063 C.3       1 <1>         0.170091 
     15 C          -0.083187   -1.910468   -0.444390 C.3       1 <1>         0.112871 
     16 C           1.571248    0.259627   -1.436021 C.3       1 <1>         0.195009 
     17 C           0.584866   -1.917414   -1.851882 C.3       1 <1>         0.113058 
     18 C          -2.743612   -0.042201   -0.445081 C.3       1 <1>         0.188352 
     19 C          -3.692573    0.046181   -1.670881 C.3       1 <1>         0.134122 
     20 C           1.875503   -0.029322    1.104846 C.ar      1 <1>        -0.006083 
     21 C          -5.152022    0.111343   -1.153779 C.3       1 <1>         0.113972 
     22 C          -5.278009    1.335816   -0.212129 C.3       1 <1>         0.109478 
     23 C          -4.251734    1.233603    0.948854 C.3       1 <1>         0.087307 
     24 C          -0.371416   -1.604942   -3.044159 C.3       1 <1>         0.073016 
     25 C           3.090754   -0.862938    0.860411 C.ar      1 <1>        -0.023247 
     26 C           1.627414    0.380246    2.449257 C.ar      1 <1>        -0.053000 
     27 C          -4.282347    2.526690    1.803693 C.3       1 <1>        -0.036060 
     28 C           3.707017    0.744639   -2.471593 C.3       1 <1>         0.047960 
     29 C           3.977664   -1.183394    1.893157 C.ar      1 <1>         0.102788 
     30 C           2.563304    0.040251    3.547666 C.ar      1 <1>        -0.028806 
     31 C           3.725506   -0.713967    3.278966 C.ar      1 <1>         0.105421 
     32 C           4.946415    1.633316   -2.207631 C.3       1 <1>        -0.041466 
     33 C           4.993764   -0.055821    5.268751 C.3       1 <1>         0.043135 
     34 H          -0.748367   -0.450442    1.047948 H         1 <1>         0.065790 
     35 H          -1.022035   -2.488350   -0.485818 H         1 <1>         0.064704 
     36 H           0.968398    0.810548   -2.173953 H         1 <1>         0.094423 
     37 H           0.948051   -2.941381   -2.038652 H         1 <1>         0.064668 
     38 H          -2.932011   -1.000529    0.069563 H         1 <1>         0.093751 
     39 H          -3.559315   -0.863138   -2.284960 H         1 <1>         0.067095 
     40 H          -5.403479   -0.797607   -0.577861 H         1 <1>         0.064757 
     41 H          -5.075697    2.247797   -0.801360 H         1 <1>         0.064584 
     42 H          -4.511188    0.376911    1.593271 H         1 <1>         0.062075 
     43 H           0.169904   -1.741821   -3.997336 H         1 <1>         0.058370 
     44 H          -0.727289   -0.567434   -3.044462 H         1 <1>         0.058370 
     45 H          -0.011809    2.020489    0.784295 H         1 <1>         0.210946 
     46 H           1.013409   -3.397083    0.390863 H         1 <1>         0.210004 
     47 H           3.329397   -1.253400   -0.119474 H         1 <1>         0.064771 
     48 H           0.748180    0.960526    2.702287 H         1 <1>         0.062204 
     49 H          -3.570588    2.461607    2.639842 H         1 <1>         0.025536 
     50 H          -5.290049    2.689887    2.212712 H         1 <1>         0.025536 
     51 H          -4.008062    3.394453    1.185519 H         1 <1>         0.025536 
     52 H          -3.983250    1.294890   -3.215678 H         1 <1>         0.210110 
     53 H           4.022999   -0.308110   -2.561028 H         1 <1>         0.055792 
     54 H           3.209918    1.056542   -3.404185 H         1 <1>         0.055792 
     55 H          -6.075413   -0.468286   -2.850544 H         1 <1>         0.210005 
     56 H          -7.273807    1.432129   -0.335378 H         1 <1>         0.210002 
     57 H           2.342356    0.379122    4.553175 H         1 <1>         0.064420 
     58 H          -1.349248   -3.370792   -3.135728 H         1 <1>         0.209508 
     59 H           5.695529    1.515224   -3.006649 H         1 <1>         0.025173 
     60 H           4.633018    2.688570   -2.158696 H         1 <1>         0.025173 
     61 H           5.402696    1.354627   -1.243268 H         1 <1>         0.025173 
     62 H           5.603902   -2.129983    2.400726 H         1 <1>         0.217422 
     63 H           5.867472   -0.426919    5.827266 H         1 <1>         0.052871 
     64 H           5.269106    0.894111    4.783351 H         1 <1>         0.052871 
     65 H           4.183804    0.118138    5.993148 H         1 <1>         0.052871 
@<TRIPOS>BOND
     1   13    1 1    
     2    1   18 1    
     3   16    2 1    
     4    2   17 1    
     5   18    3 1    
     6    3   23 1    
     7   14    4 1    
     8    4   45 1    
     9   16    5 1    
    10    5   28 1    
    11   15    6 1    
    12    6   46 1    
    13   19    7 1    
    14    7   52 1    
    15   21    8 1    
    16    8   55 1    
    17   22    9 1    
    18    9   56 1    
    19   24   10 1    
    20   10   58 1    
    21   29   11 1    
    22   11   62 1    
    23   31   12 1    
    24   12   33 1    
    25   14   13 1    
    26   13   15 1    
    27   13   34 1    
    28   14   16 1    
    29   20   14 1    
    30   15   17 1    
    31   15   35 1    
    32   16   36 1    
    33   17   24 1    
    34   17   37 1    
    35   18   19 1    
    36   18   38 1    
    37   19   21 1    
    38   19   39 1    
    39   25   20 1    
    40   20   26 2    
    41   21   22 1    
    42   21   40 1    
    43   23   22 1    
    44   22   41 1    
    45   23   27 1    
    46   23   42 1    
    47   24   43 1    
    48   24   44 1    
    49   29   25 2    
    50   25   47 1    
    51   26   30 1    
    52   26   48 1    
    53   27   49 1    
    54   27   50 1    
    55   27   51 1    
    56   28   32 1    
    57   28   53 1    
    58   28   54 1    
    59   29   31 1    
    60   30   31 2    
    61   30   57 1    
    62   32   59 1    
    63   32   60 1    
    64   32   61 1    
    65   33   63 1    
    66   33   64 1    
    67   33   65 1    
@<TRIPOS>SUBSTRUCTURE
     1 ****        1 TEMP              0 ****  ****    0 ROOT 
@<TRIPOS>NORMAL
@<TRIPOS>FF_PBC
FORCE_FIELD_SETUP_FEATURE Force Field Setup information
v1.0  0 0.000000 0.000000 0.000000 0.000000 0.000000 0.000000 NONE 0 0 0 0 1 0 0 0 0 0 0 0 0
