@<TRIPOS>MOLECULE
MOL004917
   70    74     1     1     0
SMALL
GASTEIGER


@<TRIPOS>ATOM
      1 C          -0.159077    6.588457   -2.487253 C.3       1 <1>         0.084283 
      2 O           0.954756    5.688652   -2.570021 O.3       1 <1>        -0.345676 
      3 C           0.433044    4.404921   -2.933685 C.3       1 <1>         0.188494 
      4 C          -0.769477    4.281453   -1.960515 C.3       1 <1>         0.138725 
      5 C          -1.298771    5.747497   -1.851313 C.3       1 <1>         0.142478 
      6 O           1.488608    3.434311   -2.770584 O.3       1 <1>        -0.337746 
      7 C           2.448535    1.846019   -4.300343 C.3       1 <1>         0.114441 
      8 C           2.324679    0.417379   -4.890826 C.3       1 <1>         0.111906 
      9 C           2.191878   -0.626493   -3.744146 C.3       1 <1>         0.113017 
     10 O           1.068127   -0.286496   -2.910148 O.3       1 <1>        -0.340158 
     11 C           1.147045    1.014513   -2.294355 C.3       1 <1>         0.194010 
     12 C           1.243802    2.133449   -3.363425 C.3       1 <1>         0.141013 
     13 C          -1.429349    0.735024    0.366354 C.ar      1 <1>        -0.030735 
     14 C          -1.706141   -0.010572    1.615163 C.ar      1 <1>        -0.045972 
     15 C          -0.914795   -1.124155    1.937036 C.ar      1 <1>         0.052905 
     16 C           0.152002   -1.577149    1.027835 C.ar      1 <1>         0.095578 
     17 C           0.434886   -0.844126   -0.127568 C.ar      1 <1>        -0.000353 
     18 C          -0.366275    0.364560   -0.465385 C.ar      1 <1>         0.081963 
     19 C          -1.072984   -1.924708    3.202138 C.2       1 <1>         0.198092 
     20 C          -0.320409   -3.185778    3.303770 C.2       1 <1>         0.052566 
     21 C           0.592155   -3.518706    2.378205 C.2       1 <1>         0.058253 
     22 O           0.871789   -2.740192    1.317405 O.3       1 <1>        -0.315353 
     23 C          -0.586452   -4.122097    4.470127 C.ar      1 <1>        -0.012138 
     24 C           0.521964   -4.849005    5.139130 C.ar      1 <1>        -0.051413 
     25 C           0.258138   -5.728531    6.196320 C.ar      1 <1>        -0.031115 
     26 C          -1.126078   -5.925885    6.678765 C.ar      1 <1>         0.075849 
     27 C          -2.175196   -5.231772    6.059960 C.ar      1 <1>        -0.031115 
     28 C          -1.899022   -4.315670    4.926503 C.ar      1 <1>        -0.051413 
     29 O          -1.361833   -6.788141    7.755751 O.3       1 <1>        -0.347912 
     30 C          -2.268039   -7.887396    7.553192 C.3       1 <1>         0.043026 
     31 O          -1.791498   -1.519936    4.100613 O.2       1 <1>        -0.286478 
     32 O          -0.099200    1.145905   -1.593998 O.3       1 <1>        -0.312457 
     33 O           1.149249    0.416260   -5.725894 O.3       1 <1>        -0.386488 
     34 C           3.511429   -0.904721   -2.962679 C.3       1 <1>         0.073015 
     35 O           3.294577   -1.975192   -2.021584 O.3       1 <1>        -0.392366 
     36 O           3.698897    2.022194   -3.603648 O.3       1 <1>        -0.386391 
     37 C          -2.648704    5.939964   -2.592841 C.3       1 <1>         0.077754 
     38 O          -3.614152    5.067088   -1.979845 O.3       1 <1>        -0.392006 
     39 O          -1.490308    6.181410   -0.490273 O.3       1 <1>        -0.381246 
     40 O          -0.292691    3.805116   -0.686045 O.3       1 <1>        -0.383740 
     41 H           0.100089    7.480880   -1.897649 H         1 <1>         0.059107 
     42 H          -0.409831    6.905571   -3.512055 H         1 <1>         0.059107 
     43 H           0.114685    4.472425   -3.989437 H         1 <1>         0.093755 
     44 H          -1.507498    3.568135   -2.367265 H         1 <1>         0.067462 
     45 H           2.398567    2.583441   -5.122147 H         1 <1>         0.064768 
     46 H           3.207991    0.204232   -5.520123 H         1 <1>         0.064673 
     47 H           1.916188   -1.591015   -4.198700 H         1 <1>         0.064668 
     48 H           1.975836    1.133403   -1.577714 H         1 <1>         0.094170 
     49 H           0.313769    2.084586   -3.954290 H         1 <1>         0.067490 
     50 H          -2.050555    1.581342    0.097960 H         1 <1>         0.064350 
     51 H          -2.504089    0.308834    2.278059 H         1 <1>         0.062621 
     52 H           1.238575   -1.200590   -0.757182 H         1 <1>         0.066954 
     53 H           1.155289   -4.451019    2.442897 H         1 <1>         0.089749 
     54 H           1.548113   -4.703635    4.819479 H         1 <1>         0.062443 
     55 H           1.071030   -6.265549    6.675305 H         1 <1>         0.064346 
     56 H          -3.193386   -5.352649    6.408193 H         1 <1>         0.064346 
     57 H          -2.730791   -3.802386    4.452278 H         1 <1>         0.062443 
     58 H          -2.281921   -8.501439    8.466381 H         1 <1>         0.052869 
     59 H          -1.925121   -8.513727    6.715524 H         1 <1>         0.052869 
     60 H          -3.294503   -7.543065    7.358436 H         1 <1>         0.052869 
     61 H           0.978655   -0.420206   -6.148175 H         1 <1>         0.210004 
     62 H           4.305699   -1.195240   -3.674846 H         1 <1>         0.058370 
     63 H           3.862130   -0.022199   -2.409915 H         1 <1>         0.058370 
     64 H           4.062620   -2.184236   -1.497069 H         1 <1>         0.209508 
     65 H           4.460028    1.940399   -4.170595 H         1 <1>         0.210005 
     66 H          -2.968284    6.989642   -2.480738 H         1 <1>         0.058733 
     67 H          -2.544118    5.709865   -3.664373 H         1 <1>         0.058733 
     68 H          -4.481644    5.140468   -2.364039 H         1 <1>         0.209522 
     69 H          -2.230929    5.751429   -0.074647 H         1 <1>         0.210475 
     70 H          -0.981402    3.744955   -0.035848 H         1 <1>         0.210125 
@<TRIPOS>BOND
     1    2    1 1    
     2    5    1 1    
     3    1   41 1    
     4    1   42 1    
     5    3    2 1    
     6    3    4 1    
     7    6    3 1    
     8    3   43 1    
     9    4    5 1    
    10    4   40 1    
    11    4   44 1    
    12    5   37 1    
    13    5   39 1    
    14   12    6 1    
    15    7    8 1    
    16   12    7 1    
    17    7   36 1    
    18    7   45 1    
    19    9    8 1    
    20    8   33 1    
    21    8   46 1    
    22   10    9 1    
    23    9   34 1    
    24    9   47 1    
    25   11   10 1    
    26   11   12 1    
    27   32   11 1    
    28   11   48 1    
    29   12   49 1    
    30   13   14 1    
    31   18   13 2    
    32   13   50 1    
    33   14   15 2    
    34   14   51 1    
    35   16   15 1    
    36   15   19 1    
    37   17   16 2    
    38   16   22 1    
    39   18   17 1    
    40   17   52 1    
    41   18   32 1    
    42   19   20 1    
    43   19   31 2    
    44   20   21 2    
    45   20   23 1    
    46   21   22 1    
    47   21   53 1    
    48   23   24 1    
    49   23   28 2    
    50   24   25 2    
    51   24   54 1    
    52   25   26 1    
    53   25   55 1    
    54   26   27 2    
    55   26   29 1    
    56   27   28 1    
    57   27   56 1    
    58   28   57 1    
    59   29   30 1    
    60   30   58 1    
    61   30   59 1    
    62   30   60 1    
    63   33   61 1    
    64   34   35 1    
    65   34   62 1    
    66   34   63 1    
    67   35   64 1    
    68   36   65 1    
    69   37   38 1    
    70   37   66 1    
    71   37   67 1    
    72   38   68 1    
    73   39   69 1    
    74   40   70 1    
@<TRIPOS>SUBSTRUCTURE
     1 ****       13 TEMP              0 ****  ****    0 ROOT 
@<TRIPOS>NORMAL
@<TRIPOS>FF_PBC
FORCE_FIELD_SETUP_FEATURE Force Field Setup information
v1.0  0 0.000000 0.000000 0.000000 0.000000 0.000000 0.000000 NONE 0 0 0 0 1 0 0 0 0 0 0 0 0
