@<TRIPOS>MOLECULE
MOL004060
   28    30     1     1     0
SMALL
GASTEIGER


@<TRIPOS>ATOM
      1 O           4.511121    2.618319   -0.147405 O.3       1 <1>        -0.388422 
      2 O           2.242706   -0.205124    0.233139 O.3       1 <1>        -0.310039 
      3 O          -1.294397   -3.694310    0.422841 O.2       1 <1>        -0.212229 
      4 O          -2.516970    0.743117   -0.797423 O.3       1 <1>        -0.346216 
      5 O          -0.435082    2.610989   -0.832577 O.2       1 <1>        -0.287027 
      6 C           4.133969    1.251128    0.107710 C.3       1 <1>         0.091044 
      7 C           2.646633    1.048367   -0.042714 C.2       1 <1>         0.089344 
      8 C          -0.091534    0.313116   -0.277785 C.ar      1 <1>         0.083204 
      9 C           0.910497   -0.612312    0.106858 C.ar      1 <1>         0.104969 
     10 C           1.788700    2.009250   -0.415772 C.2       1 <1>         0.014465 
     11 C           0.354402    1.728734   -0.535611 C.2       1 <1>         0.193284 
     12 C          -1.503342   -0.129618   -0.417362 C.ar      1 <1>         0.105489 
     13 C          -1.784070   -1.474871   -0.164186 C.ar      1 <1>         0.117731 
     14 C          -0.758955   -2.440924    0.235170 C.ar      1 <1>         0.367819 
     15 C           0.563901   -2.032694    0.378393 C.ar      1 <1>         0.074360 
     16 C          -3.022959   -2.256762   -0.211225 C.ar      1 <1>         0.053228 
     17 C          -2.643658   -3.536166    0.144882 C.ar      1 <1>         0.322710 
     18 C          -3.269723    1.310489    0.287974 C.3       1 <1>         0.043084 
     19 H           5.447907    2.772168   -0.061974 H         1 <1>         0.209932 
     20 H           4.416640    0.965122    1.134809 H         1 <1>         0.062730 
     21 H           4.638177    0.577124   -0.604806 H         1 <1>         0.062730 
     22 H           2.131015    3.018536   -0.639375 H         1 <1>         0.067943 
     23 H           1.327862   -2.739657    0.679972 H         1 <1>         0.073822 
     24 H          -4.016013   -1.902868   -0.468495 H         1 <1>         0.071423 
     25 H          -3.349395   -4.360423    0.204724 H         1 <1>         0.176011 
     26 H          -4.024919    1.981816   -0.147975 H         1 <1>         0.052870 
     27 H          -3.787120    0.537752    0.878954 H         1 <1>         0.052870 
     28 H          -2.615192    1.899601    0.949358 H         1 <1>         0.052870 
@<TRIPOS>BOND
     1    6    1 1    
     2    1   19 1    
     3    2    7 1    
     4    9    2 1    
     5   14    3 1    
     6    3   17 1    
     7   12    4 1    
     8    4   18 1    
     9   11    5 2    
    10    7    6 1    
    11    6   20 1    
    12    6   21 1    
    13   10    7 2    
    14    8    9 2    
    15    8   11 1    
    16   12    8 1    
    17    9   15 1    
    18   11   10 1    
    19   10   22 1    
    20   13   12 2    
    21   13   14 1    
    22   13   16 1    
    23   14   15 2    
    24   15   23 1    
    25   16   17 2    
    26   16   24 1    
    27   17   25 1    
    28   18   26 1    
    29   18   27 1    
    30   18   28 1    
@<TRIPOS>SUBSTRUCTURE
     1 ****        1 TEMP              0 ****  ****    0 ROOT 
@<TRIPOS>NORMAL
@<TRIPOS>FF_PBC
FORCE_FIELD_SETUP_FEATURE Force Field Setup information
v1.0  0 0.000000 0.000000 0.000000 0.000000 0.000000 0.000000 NONE 0 0 0 0 1 0 0 0 0 0 0 0 0
