@<TRIPOS>MOLECULE
MOL004614
   29    30     1     1     0
SMALL
GASTEIGER


@<TRIPOS>ATOM
      1 O          -2.172179    2.098877    0.345051 O.3       1 <1>        -0.271090 
      2 O          -2.198407   -0.319918   -1.018374 O.3       1 <1>        -0.342863 
      3 O           0.267327   -1.968908   -1.079149 O.3       1 <1>        -0.342889 
      4 O           2.540164   -1.085174    0.377834 O.3       1 <1>        -0.345233 
      5 O          -3.210057    3.936476    0.984433 O.2       1 <1>        -0.259479 
      6 C           0.195115    1.760518    1.060454 C.ar      1 <1>         0.010918 
      7 C          -1.016645    1.309909    0.338317 C.ar      1 <1>         0.126099 
      8 C          -1.017514    0.070394   -0.364142 C.ar      1 <1>         0.139439 
      9 C           0.220722   -0.761236   -0.375215 C.ar      1 <1>         0.138268 
     10 C           1.375512   -0.316133    0.346383 C.ar      1 <1>         0.108928 
     11 C           1.352397    0.973682    1.069481 C.ar      1 <1>        -0.019340 
     12 C           0.135766    3.084900    1.780947 C.2       1 <1>        -0.046279 
     13 C          -1.009364    3.770066    1.728164 C.2       1 <1>         0.010955 
     14 C          -2.189407    3.268750    0.996884 C.2       1 <1>         0.291655 
     15 C          -2.385113   -1.634040   -1.565741 C.3       1 <1>         0.043244 
     16 C           1.112785   -1.957483   -2.242711 C.3       1 <1>         0.043243 
     17 C           2.449803   -2.266014    1.191647 C.3       1 <1>         0.043137 
     18 H           2.239125    1.299809    1.601591 H         1 <1>         0.065084 
     19 H           1.000795    3.466010    2.325230 H         1 <1>         0.062608 
     20 H          -1.092024    4.731230    2.235835 H         1 <1>         0.067748 
     21 H          -3.430223   -1.706631   -1.900511 H         1 <1>         0.052872 
     22 H          -1.739448   -1.799805   -2.439831 H         1 <1>         0.052872 
     23 H          -2.209268   -2.409798   -0.804678 H         1 <1>         0.052872 
     24 H           1.032070   -2.939555   -2.731136 H         1 <1>         0.052872 
     25 H           2.168055   -1.784403   -1.984827 H         1 <1>         0.052872 
     26 H           0.784414   -1.182504   -2.952818 H         1 <1>         0.052872 
     27 H           3.420866   -2.781300    1.156242 H         1 <1>         0.052871 
     28 H           1.674575   -2.955293    0.823469 H         1 <1>         0.052871 
     29 H           2.230365   -1.997510    2.236800 H         1 <1>         0.052871 
@<TRIPOS>BOND
     1    7    1 1    
     2    1   14 1    
     3    8    2 1    
     4    2   15 1    
     5    9    3 1    
     6    3   16 1    
     7   10    4 1    
     8    4   17 1    
     9   14    5 2    
    10    7    6 1    
    11    6   11 2    
    12    6   12 1    
    13    8    7 2    
    14    9    8 1    
    15    9   10 2    
    16   10   11 1    
    17   11   18 1    
    18   12   13 2    
    19   12   19 1    
    20   13   14 1    
    21   13   20 1    
    22   15   21 1    
    23   15   22 1    
    24   15   23 1    
    25   16   24 1    
    26   16   25 1    
    27   16   26 1    
    28   17   27 1    
    29   17   28 1    
    30   17   29 1    
@<TRIPOS>SUBSTRUCTURE
     1 ****        1 TEMP              0 ****  ****    0 ROOT 
@<TRIPOS>NORMAL
@<TRIPOS>FF_PBC
FORCE_FIELD_SETUP_FEATURE Force Field Setup information
v1.0  0 0.000000 0.000000 0.000000 0.000000 0.000000 0.000000 NONE 0 0 0 0 1 0 0 0 0 0 0 0 0
