@<TRIPOS>MOLECULE
MOL001918
   41    44     1     1     0
SMALL
GASTEIGER


@<TRIPOS>ATOM
      1 O           0.661259   -2.031121    1.581102 O.3       1 <1>        -0.338954 
      2 O          -0.085455   -0.309951    2.719539 O.3       1 <1>        -0.316961 
      3 O          -2.376970   -0.784605    2.970730 O.3       1 <1>        -0.362280 
      4 O          -0.249049   -1.394516   -1.962860 O.2       1 <1>        -0.296999 
      5 O           2.614601    2.076626    0.588370 O.3       1 <1>        -0.310965 
      6 O           4.043420    2.242073   -1.068768 O.2       1 <1>        -0.259226 
      7 C          -0.770396   -2.143667    1.505758 C.3       1 <1>         0.129701 
      8 C          -1.266986   -0.770527    2.062998 C.3       1 <1>         0.200284 
      9 C          -0.452558    0.113744   -0.127344 C.3       1 <1>         0.032094 
     10 C           0.932602    0.243139    0.569852 C.3       1 <1>         0.043883 
     11 C          -1.574859    0.237946    0.929898 C.3       1 <1>         0.014177 
     12 C           0.985328   -0.657907    1.838660 C.3       1 <1>         0.168973 
     13 C          -1.139465   -2.361464    0.018332 C.3       1 <1>         0.040153 
     14 C          -0.577528   -1.231197   -0.798683 C.2       1 <1>         0.139985 
     15 C          -1.211345   -3.353014    2.370248 C.3       1 <1>        -0.030218 
     16 C           1.260242    1.727129    0.940238 C.3       1 <1>         0.065466 
     17 C           2.876786    2.149675   -0.727573 C.2       1 <1>         0.293820 
     18 C           1.826616    2.120712   -1.817823 C.ar      1 <1>         0.046475 
     19 C           1.746114    0.948021   -2.721678 C.ar      1 <1>        -0.048875 
     20 C           0.926404    3.198854   -1.992522 C.ar      1 <1>        -0.048875 
     21 C           0.773845    0.902208   -3.734108 C.ar      1 <1>        -0.061020 
     22 C          -0.097326    3.146092   -3.065347 C.ar      1 <1>        -0.061020 
     23 C          -0.170958    2.029285   -3.911104 C.ar      1 <1>        -0.061719 
     24 H          -0.583130    0.878998   -0.910046 H         1 <1>         0.038404 
     25 H           1.702078   -0.140382   -0.119738 H         1 <1>         0.037913 
     26 H          -2.556888    0.026375    0.477929 H         1 <1>         0.032476 
     27 H          -1.608402    1.252201    1.357952 H         1 <1>         0.032476 
     28 H           1.970100   -0.580488    2.329389 H         1 <1>         0.091465 
     29 H          -0.698114   -3.305836   -0.337909 H         1 <1>         0.037149 
     30 H          -2.230668   -2.412053   -0.110958 H         1 <1>         0.037149 
     31 H          -0.853147   -3.234530    3.404003 H         1 <1>         0.025917 
     32 H          -0.783811   -4.283367    1.967908 H         1 <1>         0.025917 
     33 H          -2.308688   -3.442305    2.371773 H         1 <1>         0.025917 
     34 H           1.198079    1.860646    2.031924 H         1 <1>         0.057052 
     35 H           0.547060    2.448438    0.515780 H         1 <1>         0.057052 
     36 H          -2.152237   -1.205542    3.792232 H         1 <1>         0.212847 
     37 H           2.438858    0.121994   -2.598447 H         1 <1>         0.062527 
     38 H           0.981442    4.068922   -1.346348 H         1 <1>         0.062527 
     39 H           0.714288    0.038352   -4.390459 H         1 <1>         0.061778 
     40 H          -0.787743    3.973396   -3.195894 H         1 <1>         0.061778 
     41 H          -0.917799    1.988799   -4.698599 H         1 <1>         0.061759 
@<TRIPOS>BOND
     1    1    7 1    
     2   12    1 1    
     3    2    8 1    
     4   12    2 1    
     5    8    3 1    
     6    3   36 1    
     7   14    4 2    
     8   16    5 1    
     9    5   17 1    
    10   17    6 2    
    11    8    7 1    
    12    7   13 1    
    13    7   15 1    
    14   11    8 1    
    15   10    9 1    
    16    9   11 1    
    17    9   14 1    
    18    9   24 1    
    19   10   12 1    
    20   10   16 1    
    21   10   25 1    
    22   11   26 1    
    23   11   27 1    
    24   12   28 1    
    25   13   14 1    
    26   13   29 1    
    27   13   30 1    
    28   15   31 1    
    29   15   32 1    
    30   15   33 1    
    31   16   34 1    
    32   16   35 1    
    33   17   18 1    
    34   18   19 1    
    35   18   20 2    
    36   19   21 2    
    37   19   37 1    
    38   20   22 1    
    39   20   38 1    
    40   21   23 1    
    41   21   39 1    
    42   22   23 2    
    43   22   40 1    
    44   23   41 1    
@<TRIPOS>SUBSTRUCTURE
     1 ****        9 TEMP              0 ****  ****    0 ROOT 
@<TRIPOS>NORMAL
@<TRIPOS>FF_PBC
FORCE_FIELD_SETUP_FEATURE Force Field Setup information
v1.0  0 0.000000 0.000000 0.000000 0.000000 0.000000 0.000000 NONE 0 0 0 0 1 0 0 0 0 0 0 0 0
