@<TRIPOS>MOLECULE
MOL002919
   39    41     1     1     0
SMALL
GASTEIGER


@<TRIPOS>ATOM
      1 O          -1.077374    0.692166    0.323305 O.3       1 <1>        -0.305045 
      2 O          -0.709361   -1.661924   -1.113720 O.3       1 <1>        -0.344586 
      3 O           2.052888    2.097472   -0.667922 O.3       1 <1>        -0.354460 
      4 O           3.507315   -3.970684    0.035412 O.3       1 <1>        -0.345262 
      5 O          -2.017087    5.458389   -0.463842 O.3       1 <1>        -0.358954 
      6 O           0.434065    4.316662   -0.663236 O.2       1 <1>        -0.284270 
      7 O           0.921610   -4.019928   -1.124822 O.3       1 <1>        -0.355370 
      8 O          -5.651423    2.418005    0.882543 O.3       1 <1>        -0.359667 
      9 C           0.222771    0.837095    0.005089 C.2       1 <1>         0.126174 
     10 C           1.089735   -0.404206    0.044660 C.ar      1 <1>         0.040767 
     11 C          -1.543504    3.108959   -0.069447 C.ar      1 <1>         0.084553 
     12 C          -1.987341    1.749484    0.294588 C.ar      1 <1>         0.099002 
     13 C           0.751844    2.023518   -0.342366 C.2       1 <1>         0.151891 
     14 C          -0.075785    3.243912   -0.381496 C.2       1 <1>         0.223067 
     15 C           0.571320   -1.660618   -0.547828 C.ar      1 <1>         0.117647 
     16 C           2.375656   -0.382016    0.634932 C.ar      1 <1>        -0.046940 
     17 C          -2.456542    4.181088   -0.112405 C.ar      1 <1>         0.088401 
     18 C          -3.327710    1.515892    0.612928 C.ar      1 <1>        -0.000529 
     19 C           1.386221   -2.833638   -0.546369 C.ar      1 <1>         0.133589 
     20 C           2.741088   -2.796350    0.062205 C.ar      1 <1>         0.108012 
     21 C           3.218280   -1.600618    0.640692 C.ar      1 <1>        -0.028352 
     22 C          -4.307369    2.631862    0.574111 C.ar      1 <1>         0.077519 
     23 C          -3.880189    3.923713    0.221577 C.ar      1 <1>        -0.001302 
     24 C          -1.677552   -2.575642   -0.571818 C.3       1 <1>         0.043163 
     25 C           4.929222   -3.955647    0.241819 C.3       1 <1>         0.043137 
     26 H           2.755220    0.526020    1.091159 H         1 <1>         0.062587 
     27 H          -3.640129    0.514250    0.886589 H         1 <1>         0.066947 
     28 H           4.199872   -1.542399    1.093352 H         1 <1>         0.064432 
     29 H          -4.603422    4.731733    0.197249 H         1 <1>         0.066923 
     30 H           2.327693    2.980701   -0.898339 H         1 <1>         0.217537 
     31 H          -2.707375    6.109778   -0.507488 H         1 <1>         0.217342 
     32 H           1.565039   -4.719193   -1.050319 H         1 <1>         0.217502 
     33 H          -2.649695   -2.335554   -1.027033 H         1 <1>         0.052871 
     34 H          -1.763514   -2.462430    0.519500 H         1 <1>         0.052871 
     35 H          -1.437027   -3.619862   -0.814580 H         1 <1>         0.052871 
     36 H          -5.854902    1.516686    1.106928 H         1 <1>         0.217316 
     37 H           5.299527   -4.971644    0.036956 H         1 <1>         0.052871 
     38 H           5.419566   -3.256985   -0.453435 H         1 <1>         0.052871 
     39 H           5.188640   -3.698538    1.279968 H         1 <1>         0.052871 
@<TRIPOS>BOND
     1    9    1 1    
     2    1   12 1    
     3   15    2 1    
     4    2   24 1    
     5   13    3 1    
     6    3   30 1    
     7   20    4 1    
     8    4   25 1    
     9   17    5 1    
    10    5   31 1    
    11   14    6 2    
    12   19    7 1    
    13    7   32 1    
    14   22    8 1    
    15    8   36 1    
    16   10    9 1    
    17    9   13 2    
    18   15   10 1    
    19   10   16 2    
    20   12   11 1    
    21   14   11 1    
    22   11   17 2    
    23   12   18 2    
    24   13   14 1    
    25   19   15 2    
    26   16   21 1    
    27   16   26 1    
    28   17   23 1    
    29   18   22 1    
    30   18   27 1    
    31   19   20 1    
    32   20   21 2    
    33   21   28 1    
    34   22   23 2    
    35   23   29 1    
    36   24   33 1    
    37   24   34 1    
    38   24   35 1    
    39   25   37 1    
    40   25   38 1    
    41   25   39 1    
@<TRIPOS>SUBSTRUCTURE
     1 ****        1 TEMP              0 ****  ****    0 ROOT 
@<TRIPOS>NORMAL
@<TRIPOS>FF_PBC
FORCE_FIELD_SETUP_FEATURE Force Field Setup information
v1.0  0 0.000000 0.000000 0.000000 0.000000 0.000000 0.000000 NONE 0 0 0 0 1 0 0 0 0 0 0 0 0
