@<TRIPOS>MOLECULE
MOL013436
   46    48     1     1     0
SMALL
GASTEIGER


@<TRIPOS>ATOM
      1 C           2.360893   -4.266788    0.287433 C.2       1 <1>         0.291587 
      2 C           3.224815   -4.323110   -0.909755 C.2       1 <1>         0.010952 
      3 C           3.345674   -3.292138   -1.749687 C.2       1 <1>        -0.046434 
      4 C           2.555687   -2.043515   -1.441291 C.ar      1 <1>         0.006204 
      5 C           1.698377   -2.051781   -0.235291 C.ar      1 <1>         0.099581 
      6 O           1.650260   -3.174507    0.596313 O.3       1 <1>        -0.273423 
      7 C           0.920788   -0.919922    0.079765 C.ar      1 <1>         0.020794 
      8 C           0.972610    0.291747   -0.776798 C.ar      1 <1>         0.082360 
      9 C           1.809416    0.295875   -1.924544 C.ar      1 <1>        -0.030679 
     10 C           2.613162   -0.903161   -2.261711 C.ar      1 <1>        -0.049653 
     11 O           2.290928   -5.239396    1.019851 O.2       1 <1>        -0.259479 
     12 C           0.023079   -0.966856    1.320587 C.3       1 <1>         0.036189 
     13 C          -0.987250   -2.076311    1.163918 C.2       1 <1>         0.140322 
     14 C          -1.569257   -2.723128    2.404065 C.3       1 <1>         0.012197 
     15 C          -2.238952   -1.669809    3.326234 C.3       1 <1>        -0.055944 
     16 O          -1.348154   -2.428908    0.051476 O.2       1 <1>        -0.296786 
     17 C          -0.519369   -3.567897    3.177655 C.3       1 <1>        -0.055944 
     18 O           0.191826    1.399592   -0.421513 O.3       1 <1>        -0.341676 
     19 C           0.194860    2.633813   -1.160613 C.3       1 <1>         0.083111 
     20 O          -0.310816    4.920687   -0.456568 O.3       1 <1>        -0.362941 
     21 C          -0.781802    3.587555   -0.432400 C.3       1 <1>         0.111494 
     22 C          -1.473708    4.787105   -1.219355 C.3       1 <1>         0.092702 
     23 C          -2.776983    5.330720   -0.591387 C.3       1 <1>        -0.033540 
     24 C          -1.268227    4.914785   -2.746963 C.3       1 <1>        -0.033540 
     25 H           3.774986   -5.244755   -1.101294 H         1 <1>         0.067748 
     26 H           3.988585   -3.346619   -2.629642 H         1 <1>         0.062606 
     27 H           1.880839    1.161761   -2.572489 H         1 <1>         0.064357 
     28 H           3.243044   -0.895570   -3.145308 H         1 <1>         0.062503 
     29 H          -0.527724   -0.022814    1.449766 H         1 <1>         0.039177 
     30 H           0.673631   -1.112787    2.193405 H         1 <1>         0.039177 
     31 H          -2.361711   -3.413148    2.062220 H         1 <1>         0.037195 
     32 H          -2.746233   -2.168442    4.167919 H         1 <1>         0.023632 
     33 H          -2.988070   -1.093926    2.759964 H         1 <1>         0.023632 
     34 H          -1.493706   -0.970773    3.734720 H         1 <1>         0.023632 
     35 H          -1.011758   -4.125453    3.990069 H         1 <1>         0.023632 
     36 H          -0.044360   -4.290984    2.496681 H         1 <1>         0.023632 
     37 H           0.264744   -2.940774    3.625827 H         1 <1>         0.023632 
     38 H          -0.156087    2.448878   -2.186379 H         1 <1>         0.059175 
     39 H           1.203205    3.078184   -1.174145 H         1 <1>         0.059175 
     40 H          -1.060848    3.358918    0.609177 H         1 <1>         0.064807 
     41 H          -3.639913    4.835727   -1.061845 H         1 <1>         0.025805 
     42 H          -2.807536    5.151586    0.493787 H         1 <1>         0.025805 
     43 H          -2.841452    6.413767   -0.772409 H         1 <1>         0.025805 
     44 H          -1.540017    5.933096   -3.064269 H         1 <1>         0.025805 
     45 H          -1.918452    4.193517   -3.263773 H         1 <1>         0.025805 
     46 H          -0.222441    4.731997   -3.033923 H         1 <1>         0.025805 
@<TRIPOS>BOND
     1    1    2 1    
     2    1    6 1    
     3    1   11 2    
     4    2    3 2    
     5    2   25 1    
     6    3    4 1    
     7    3   26 1    
     8    4    5 1    
     9    4   10 2    
    10    5    6 1    
    11    5    7 2    
    12    7    8 1    
    13    7   12 1    
    14    8    9 2    
    15    8   18 1    
    16    9   10 1    
    17    9   27 1    
    18   10   28 1    
    19   12   13 1    
    20   12   29 1    
    21   12   30 1    
    22   13   14 1    
    23   13   16 2    
    24   14   15 1    
    25   14   17 1    
    26   14   31 1    
    27   15   32 1    
    28   15   33 1    
    29   15   34 1    
    30   17   35 1    
    31   17   36 1    
    32   17   37 1    
    33   18   19 1    
    34   19   21 1    
    35   19   38 1    
    36   19   39 1    
    37   21   20 1    
    38   20   22 1    
    39   21   22 1    
    40   21   40 1    
    41   22   23 1    
    42   22   24 1    
    43   23   41 1    
    44   23   42 1    
    45   23   43 1    
    46   24   44 1    
    47   24   45 1    
    48   24   46 1    
@<TRIPOS>SUBSTRUCTURE
     1 ****        1 TEMP              0 ****  ****    0 ROOT 
@<TRIPOS>NORMAL
@<TRIPOS>FF_PBC
FORCE_FIELD_SETUP_FEATURE Force Field Setup information
v1.0  0 0.000000 0.000000 0.000000 0.000000 0.000000 0.000000 NONE 0 0 0 0 1 0 0 0 0 0 0 0 0
