@<TRIPOS>MOLECULE
MOL009451
   26    27     1     1     0
SMALL
GASTEIGER


@<TRIPOS>ATOM
      1 C           0.594538    0.120182   -1.058793 C.3       1 <1>        -0.013903 
      2 C          -0.688157    0.882749   -0.867371 C.2       1 <1>        -0.081136 
      3 C          -1.790983    0.274035   -0.415737 C.2       1 <1>        -0.076231 
      4 C          -1.754372   -1.194377   -0.071343 C.3       1 <1>        -0.031710 
      5 C          -0.433584   -1.524527    0.668212 C.3       1 <1>        -0.045473 
      6 C           0.799876   -1.159752   -0.201052 C.3       1 <1>        -0.028288 
      7 C           1.633284    0.120576    0.081882 C.3       1 <1>        -0.024979 
      8 C           3.119471    0.044687   -0.353096 C.3       1 <1>        -0.058998 
      9 C           1.329434    0.996884    1.327063 C.3       1 <1>        -0.058998 
     10 C          -3.107537    0.991027   -0.229129 C.3       1 <1>        -0.043778 
     11 H           1.008018    0.078124   -2.079024 H         1 <1>         0.035115 
     12 H          -0.684837    1.943851   -1.114741 H         1 <1>         0.057458 
     13 H          -1.828050   -1.775489   -1.004287 H         1 <1>         0.030999 
     14 H          -2.602265   -1.470678    0.576711 H         1 <1>         0.030999 
     15 H          -0.397930   -2.607557    0.870249 H         1 <1>         0.027131 
     16 H          -0.413200   -1.019619    1.643972 H         1 <1>         0.027131 
     17 H           1.249635   -1.962025   -0.808671 H         1 <1>         0.031202 
     18 H           3.476562    1.055943   -0.598423 H         1 <1>         0.023525 
     19 H           3.715549   -0.351144    0.482498 H         1 <1>         0.023525 
     20 H           3.273321   -0.601787   -1.230517 H         1 <1>         0.023525 
     21 H           0.262808    1.199656    1.495511 H         1 <1>         0.023525 
     22 H           1.740299    0.498248    2.217362 H         1 <1>         0.023525 
     23 H           1.834967    1.966100    1.204177 H         1 <1>         0.023525 
     24 H          -3.391312    0.967948    0.833693 H         1 <1>         0.027436 
     25 H          -3.886924    0.484631   -0.818148 H         1 <1>         0.027436 
     26 H          -3.058513    2.042216   -0.551097 H         1 <1>         0.027436 
@<TRIPOS>BOND
     1    1    2 1    
     2    1    6 1    
     3    1    7 1    
     4    1   11 1    
     5    2    3 2    
     6    2   12 1    
     7    3    4 1    
     8    3   10 1    
     9    4    5 1    
    10    4   13 1    
    11    4   14 1    
    12    5    6 1    
    13    5   15 1    
    14    5   16 1    
    15    6    7 1    
    16    6   17 1    
    17    7    8 1    
    18    7    9 1    
    19    8   18 1    
    20    8   19 1    
    21    8   20 1    
    22    9   21 1    
    23    9   22 1    
    24    9   23 1    
    25   10   24 1    
    26   10   25 1    
    27   10   26 1    
@<TRIPOS>SUBSTRUCTURE
     1 ****        1 TEMP              0 ****  ****    0 ROOT 
@<TRIPOS>NORMAL
@<TRIPOS>FF_PBC
FORCE_FIELD_SETUP_FEATURE Force Field Setup information
v1.0  0 0.000000 0.000000 0.000000 0.000000 0.000000 0.000000 NONE 0 0 0 0 1 0 0 0 0 0 0 0 0
