@<TRIPOS>MOLECULE
MOL006077
   35    36     1     1     0
SMALL
GASTEIGER


@<TRIPOS>ATOM
      1 N           0.083119    1.632574   -0.563836 N.ar      1 <1>        -0.143372 
      2 C           0.965589    0.780155    0.215067 C.ar      1 <1>         0.245539 
      3 C          -1.460715    1.576973   -0.454029 C.3       1 <1>         0.185230 
      4 C           0.736611    2.525454   -1.393309 C.ar      1 <1>         0.428423 
      5 C           2.304431    1.063443   -0.063556 C.ar      1 <1>         0.283446 
      6 C           0.467933   -0.278937    1.207814 C.3       1 <1>         0.026229 
      7 C          -1.961854    0.137336   -0.586626 C.ar      1 <1>         0.071652 
      8 S           2.451981    2.320936   -1.238723 S.2       1 <1>         0.297216 
      9 C           3.497938    0.352670    0.588120 C.3       1 <1>         0.056248 
     10 C          -2.876922   -0.451917    0.417692 C.ar      1 <1>         0.116679 
     11 C          -1.576279   -0.672168   -1.644210 C.ar      1 <1>         0.041806 
     12 C           4.863964    0.764766   -0.015925 C.3       1 <1>         0.053016 
     13 N          -3.280544   -1.722463    0.274230 N.ar      1 <1>        -0.220832 
     14 N          -3.316356    0.312476    1.516438 N.3       1 <1>        -0.286305 
     15 N          -2.027153   -1.948809   -1.717487 N.ar      1 <1>        -0.240003 
     16 O           5.873936    0.026991    0.688614 O.3       1 <1>        -0.394518 
     17 C          -2.866152   -2.469664   -0.778071 C.ar      1 <1>         0.127710 
     18 C          -3.344352   -3.912225   -0.915968 C.3       1 <1>        -0.004564 
     19 H          -1.959500    2.159223   -1.246332 H         1 <1>         0.108832 
     20 H          -1.765416    2.003723    0.515603 H         1 <1>         0.108832 
     21 H           0.269212    3.256249   -2.050203 H         1 <1>         0.211580 
     22 H           1.241374   -0.532392    1.946875 H         1 <1>         0.033792 
     23 H           0.190964   -1.193547    0.662513 H         1 <1>         0.033792 
     24 H          -0.408345    0.096466    1.754334 H         1 <1>         0.033792 
     25 H           3.507296    0.589983    1.664216 H         1 <1>         0.038668 
     26 H           3.375729   -0.735869    0.468685 H         1 <1>         0.038668 
     27 H          -0.914783   -0.301350   -2.419665 H         1 <1>         0.083592 
     28 H           4.897019    0.517712   -1.091837 H         1 <1>         0.056184 
     29 H           5.033354    1.847837    0.116079 H         1 <1>         0.056184 
     30 H          -3.172215   -0.250505    2.428359 H         1 <1>         0.125341 
     31 H          -4.368564    0.532223    1.401098 H         1 <1>         0.125341 
     32 H           6.762380    0.212263    0.394340 H         1 <1>         0.209411 
     33 H          -2.480054   -4.589996   -0.855920 H         1 <1>         0.030797 
     34 H          -4.056050   -4.158179   -0.113409 H         1 <1>         0.030797 
     35 H          -3.839251   -4.035833   -1.890431 H         1 <1>         0.030797 
@<TRIPOS>BOND
     1    1    2 1    
     2    1    3 1    
     3    1    4 2    
     4    2    5 2    
     5    2    6 1    
     6    3    7 1    
     7    3   19 1    
     8    3   20 1    
     9    4    8 1    
    10    4   21 1    
    11    5    8 1    
    12    5    9 1    
    13    6   22 1    
    14    6   23 1    
    15    6   24 1    
    16    7   10 1    
    17    7   11 2    
    18    9   12 1    
    19    9   25 1    
    20    9   26 1    
    21   10   13 2    
    22   10   14 1    
    23   11   15 1    
    24   11   27 1    
    25   12   16 1    
    26   12   28 1    
    27   12   29 1    
    28   13   17 1    
    29   14   30 1    
    30   14   31 1    
    31   15   17 2    
    32   16   32 1    
    33   17   18 1    
    34   18   33 1    
    35   18   34 1    
    36   18   35 1    
@<TRIPOS>SUBSTRUCTURE
     1 ****        1 TEMP              0 ****  ****    0 ROOT 
@<TRIPOS>NORMAL
@<TRIPOS>FF_PBC
FORCE_FIELD_SETUP_FEATURE Force Field Setup information
v1.0  0 0.000000 0.000000 0.000000 0.000000 0.000000 0.000000 NONE 0 0 0 0 1 0 0 0 0 0 0 0 0
