@<TRIPOS>MOLECULE
MOL003662
   29    31     1     1     0
SMALL
GASTEIGER


@<TRIPOS>ATOM
      1 O           0.067565    6.029860    0.299660 O.3       1 <1>        -0.359832 
      2 O           0.499429   -0.420770   -0.132871 O.3       1 <1>        -0.307797 
      3 O          -2.917493   -2.492168    0.518097 O.2       1 <1>        -0.287105 
      4 O           3.137122   -4.509852   -0.932384 O.3       1 <1>        -0.359749 
      5 C          -0.149777    4.649688    0.275942 C.ar      1 <1>         0.072619 
      6 C           0.981212    3.744281   -0.022535 C.ar      1 <1>        -0.031304 
      7 C          -1.421036    4.096486    0.529489 C.ar      1 <1>        -0.031304 
      8 C          -0.536553    1.746206    0.210372 C.ar      1 <1>         0.005751 
      9 C           0.794797    2.353685   -0.053677 C.ar      1 <1>        -0.049682 
     10 C          -1.621273    2.627236    0.497312 C.ar      1 <1>        -0.049682 
     11 C          -0.642729    0.231225    0.154893 C.2       1 <1>         0.093862 
     12 C           0.590901   -1.811650   -0.225817 C.ar      1 <1>         0.096315 
     13 C          -0.600343   -2.654140   -0.005166 C.ar      1 <1>         0.052333 
     14 C          -1.786106   -0.440237    0.373852 C.2       1 <1>         0.016832 
     15 C          -1.866476   -1.905834    0.315199 C.2       1 <1>         0.191028 
     16 C           1.818376   -2.412208   -0.529869 C.ar      1 <1>        -0.000698 
     17 C          -0.520468   -4.056321   -0.096140 C.ar      1 <1>        -0.046000 
     18 C           1.922477   -3.891443   -0.630247 C.ar      1 <1>         0.075081 
     19 C           0.782703   -4.685211   -0.418494 C.ar      1 <1>        -0.031105 
     20 H          -0.705593    6.545800    0.498187 H         1 <1>         0.217313 
     21 H           3.855121   -3.900341   -1.060073 H         1 <1>         0.217315 
     22 H           1.960238    4.168826   -0.217865 H         1 <1>         0.064339 
     23 H          -2.265612    4.740469    0.750710 H         1 <1>         0.064339 
     24 H           1.647938    1.721308   -0.276186 H         1 <1>         0.062503 
     25 H          -2.618277    2.261262    0.699698 H         1 <1>         0.062503 
     26 H          -2.731806    0.037487    0.608882 H         1 <1>         0.068218 
     27 H           2.687990   -1.785134   -0.690312 H         1 <1>         0.066945 
     28 H          -1.400056   -4.670221    0.067208 H         1 <1>         0.062620 
     29 H           0.860726   -5.764554   -0.492197 H         1 <1>         0.064341 
@<TRIPOS>BOND
     1    5    1 1    
     2    1   20 1    
     3    2   11 1    
     4   12    2 1    
     5   15    3 2    
     6   18    4 1    
     7    4   21 1    
     8    6    5 1    
     9    7    5 2    
    10    9    6 2    
    11    6   22 1    
    12   10    7 1    
    13    7   23 1    
    14    8    9 1    
    15    8   10 2    
    16   11    8 1    
    17    9   24 1    
    18   10   25 1    
    19   11   14 2    
    20   12   13 1    
    21   16   12 2    
    22   13   15 1    
    23   13   17 2    
    24   15   14 1    
    25   14   26 1    
    26   16   18 1    
    27   16   27 1    
    28   17   19 1    
    29   17   28 1    
    30   18   19 2    
    31   19   29 1    
@<TRIPOS>SUBSTRUCTURE
     1 ****        1 TEMP              0 ****  ****    0 ROOT 
@<TRIPOS>NORMAL
@<TRIPOS>FF_PBC
FORCE_FIELD_SETUP_FEATURE Force Field Setup information
v1.0  0 0.000000 0.000000 0.000000 0.000000 0.000000 0.000000 NONE 0 0 0 0 1 0 0 0 0 0 0 0 0
