@<TRIPOS>MOLECULE
MOL002918
   39    41     1     1     0
SMALL
GASTEIGER


@<TRIPOS>ATOM
      1 C           0.990753    0.542409   -0.140306 C.2       1 <1>         0.099005 
      2 C           1.491160    1.666235   -0.668260 C.2       1 <1>         0.017090 
      3 C           0.653372    2.858028   -0.831952 C.2       1 <1>         0.193597 
      4 O           1.116315    3.872496   -1.323963 O.2       1 <1>        -0.287016 
      5 C          -0.780256    2.765418   -0.372294 C.ar      1 <1>         0.084493 
      6 C          -1.706170    3.921030   -0.450787 C.ar      1 <1>         0.088482 
      7 C          -3.030459    3.767339    0.006109 C.ar      1 <1>         0.001243 
      8 C          -3.491453    2.466292    0.540561 C.ar      1 <1>         0.107532 
      9 C          -2.609252    1.361501    0.603806 C.ar      1 <1>         0.136793 
     10 C          -1.200395    1.522788    0.144277 C.ar      1 <1>         0.128726 
     11 O          -0.296335    0.457319    0.229049 O.3       1 <1>        -0.304955 
     12 C           1.863139   -0.677951    0.064729 C.ar      1 <1>         0.067689 
     13 C           1.322522   -2.013169   -0.293416 C.ar      1 <1>         0.117472 
     14 C           2.134945   -3.179883   -0.066142 C.ar      1 <1>         0.103271 
     15 C           3.497983   -3.014498    0.502320 C.ar      1 <1>        -0.026928 
     16 C           3.996953   -1.752378    0.814788 C.ar      1 <1>        -0.028680 
     17 C           3.164529   -0.544405    0.598200 C.ar      1 <1>         0.084838 
     18 O          -3.114136    0.149237    1.100130 O.3       1 <1>        -0.342928 
     19 C          -2.536246   -1.101353    0.692678 C.3       1 <1>         0.043243 
     20 O           0.035118   -2.078051   -0.853004 O.3       1 <1>        -0.344590 
     21 C          -0.534107   -3.295143   -1.358863 C.3       1 <1>         0.043163 
     22 O          -4.812942    2.342037    0.976431 O.3       1 <1>        -0.357150 
     23 O           3.652015    0.722792    0.929900 O.3       1 <1>        -0.359074 
     24 O          -1.254634    5.138069   -0.967513 O.3       1 <1>        -0.358953 
     25 O           1.666920   -4.461082   -0.372805 O.3       1 <1>        -0.357253 
     26 H           2.527137    1.735033   -0.995933 H         1 <1>         0.068221 
     27 H          -3.728691    4.596077   -0.029978 H         1 <1>         0.067008 
     28 H           4.119611   -3.887816    0.676384 H         1 <1>         0.064483 
     29 H           4.998577   -1.657418    1.222795 H         1 <1>         0.064421 
     30 H          -3.222597   -1.905682    0.993923 H         1 <1>         0.052872 
     31 H          -2.422579   -1.128800   -0.401527 H         1 <1>         0.052872 
     32 H          -1.569483   -1.287995    1.182395 H         1 <1>         0.052872 
     33 H          -1.507199   -3.057744   -1.814091 H         1 <1>         0.052871 
     34 H          -0.703544   -4.014516   -0.544426 H         1 <1>         0.052871 
     35 H           0.111189   -3.733012   -2.135481 H         1 <1>         0.052871 
     36 H          -4.994674    1.465666    1.303271 H         1 <1>         0.217424 
     37 H           4.559348    0.724271    1.214659 H         1 <1>         0.217340 
     38 H          -1.932678    5.791209   -1.102202 H         1 <1>         0.217342 
     39 H           2.350846   -5.121607   -0.412142 H         1 <1>         0.217422 
@<TRIPOS>BOND
     1    1    2 2    
     2    1   11 1    
     3    1   12 1    
     4    2    3 1    
     5    2   26 1    
     6    3    4 2    
     7    3    5 1    
     8    5    6 1    
     9    5   10 2    
    10    6    7 2    
    11    6   24 1    
    12    7    8 1    
    13    7   27 1    
    14    8    9 2    
    15    8   22 1    
    16    9   10 1    
    17    9   18 1    
    18   10   11 1    
    19   12   13 1    
    20   12   17 2    
    21   13   14 2    
    22   13   20 1    
    23   14   15 1    
    24   14   25 1    
    25   15   16 2    
    26   15   28 1    
    27   16   17 1    
    28   16   29 1    
    29   17   23 1    
    30   18   19 1    
    31   19   30 1    
    32   19   31 1    
    33   19   32 1    
    34   20   21 1    
    35   21   33 1    
    36   21   34 1    
    37   21   35 1    
    38   22   36 1    
    39   23   37 1    
    40   24   38 1    
    41   25   39 1    
@<TRIPOS>SUBSTRUCTURE
     1 ****        1 TEMP              0 ****  ****    0 ROOT 
@<TRIPOS>NORMAL
@<TRIPOS>FF_PBC
FORCE_FIELD_SETUP_FEATURE Force Field Setup information
v1.0  0 0.000000 0.000000 0.000000 0.000000 0.000000 0.000000 NONE 0 0 0 0 1 0 0 0 0 0 0 0 0
