@<TRIPOS>MOLECULE
MOL001201
   39    40     1     1     0
SMALL
GASTEIGER


@<TRIPOS>ATOM
      1 C          -2.094526    2.481713   -1.989065 C.2       1 <1>        -0.084465 
      2 C          -2.048679    1.272948   -2.570985 C.2       1 <1>        -0.072906 
      3 C          -0.892972    0.361282   -2.213650 C.3       1 <1>        -0.014216 
      4 C           0.360123    1.268221   -2.336126 C.3       1 <1>        -0.042376 
      5 C           0.025657    1.702279   -0.883918 C.3       1 <1>        -0.031092 
      6 C          -1.008845    2.862710   -1.000807 C.3       1 <1>        -0.031135 
      7 C          -3.065575    0.758562   -3.558487 C.3       1 <1>        -0.043506 
      8 C          -0.689453    0.332189   -0.668764 C.3       1 <1>        -0.022164 
      9 C          -1.975906    0.324167    0.217411 C.3       1 <1>        -0.058746 
     10 C           0.266341   -0.834687   -0.237904 C.3       1 <1>        -0.043370 
     11 C           0.690358   -0.794103    1.258832 C.3       1 <1>        -0.034006 
     12 C           1.661770   -1.901130    1.606258 C.2       1 <1>        -0.085268 
     13 C           2.337864   -1.997918    2.763458 C.2       1 <1>        -0.079617 
     14 C           3.304930   -3.134966    3.013164 C.3       1 <1>        -0.044050 
     15 C           2.206225   -1.011875    3.904057 C.3       1 <1>        -0.044050 
     16 H          -2.895823    3.188061   -2.207206 H         1 <1>         0.057172 
     17 H          -0.848125   -0.599657   -2.750221 H         1 <1>         0.035097 
     18 H           1.307153    0.715905   -2.434334 H         1 <1>         0.027407 
     19 H           0.325145    2.053466   -3.110434 H         1 <1>         0.027407 
     20 H           0.889709    1.928526   -0.239532 H         1 <1>         0.030934 
     21 H          -1.448111    3.082300   -0.016273 H         1 <1>         0.031025 
     22 H          -0.501596    3.770648   -1.362069 H         1 <1>         0.031025 
     23 H          -2.566796    0.541361   -4.514689 H         1 <1>         0.027445 
     24 H          -3.518428   -0.166299   -3.170139 H         1 <1>         0.027445 
     25 H          -3.865090    1.492643   -3.737995 H         1 <1>         0.027445 
     26 H          -2.350942   -0.706613    0.313582 H         1 <1>         0.023534 
     27 H          -1.730426    0.708250    1.218910 H         1 <1>         0.023534 
     28 H          -2.812925    0.926786   -0.156868 H         1 <1>         0.023534 
     29 H           1.194170   -0.853323   -0.826720 H         1 <1>         0.027372 
     30 H          -0.255932   -1.786710   -0.430227 H         1 <1>         0.027372 
     31 H          -0.187709   -0.927757    1.907567 H         1 <1>         0.030757 
     32 H           1.154461    0.182499    1.464381 H         1 <1>         0.030757 
     33 H           1.810975   -2.673021    0.850841 H         1 <1>         0.057145 
     34 H           3.414644   -3.808686    2.149356 H         1 <1>         0.027427 
     35 H           2.954142   -3.732740    3.867843 H         1 <1>         0.027427 
     36 H           4.297123   -2.723820    3.251495 H         1 <1>         0.027427 
     37 H           1.384836   -0.293104    3.783610 H         1 <1>         0.027427 
     38 H           2.025504   -1.558284    4.841929 H         1 <1>         0.027427 
     39 H           3.146631   -0.449524    4.003820 H         1 <1>         0.027427 
@<TRIPOS>BOND
     1    1    2 2    
     2    1    6 1    
     3    1   16 1    
     4    2    3 1    
     5    2    7 1    
     6    3    4 1    
     7    3    8 1    
     8    3   17 1    
     9    4    5 1    
    10    4   18 1    
    11    4   19 1    
    12    5    6 1    
    13    5    8 1    
    14    5   20 1    
    15    6   21 1    
    16    6   22 1    
    17    7   23 1    
    18    7   24 1    
    19    7   25 1    
    20    8    9 1    
    21    8   10 1    
    22    9   26 1    
    23    9   27 1    
    24    9   28 1    
    25   10   11 1    
    26   10   29 1    
    27   10   30 1    
    28   11   12 1    
    29   11   31 1    
    30   11   32 1    
    31   12   13 2    
    32   12   33 1    
    33   13   14 1    
    34   13   15 1    
    35   14   34 1    
    36   14   35 1    
    37   14   36 1    
    38   15   37 1    
    39   15   38 1    
    40   15   39 1    
@<TRIPOS>SUBSTRUCTURE
     1 ****        1 TEMP              0 ****  ****    0 ROOT 
@<TRIPOS>NORMAL
@<TRIPOS>FF_PBC
FORCE_FIELD_SETUP_FEATURE Force Field Setup information
v1.0  0 0.000000 0.000000 0.000000 0.000000 0.000000 0.000000 NONE 0 0 0 0 1 0 0 0 0 0 0 0 0
