@<TRIPOS>MOLECULE
MOL004600
   38    40     1     1     0
SMALL
GASTEIGER


@<TRIPOS>ATOM
      1 C          -0.006065    0.503607   -0.176183 C.2       1 <1>         0.123932 
      2 C           0.816679   -0.755745   -0.352365 C.ar      1 <1>         0.010737 
      3 C           0.561312    1.711621   -0.004526 C.2       1 <1>         0.154520 
      4 O          -1.340656    0.334261   -0.200479 O.3       1 <1>        -0.305122 
      5 C           0.313800   -2.014758    0.250004 C.ar      1 <1>        -0.019680 
      6 C           2.042129   -0.779017   -1.078511 C.ar      1 <1>        -0.049428 
      7 C          -0.259994    2.929564    0.115735 C.2       1 <1>         0.223296 
      8 O           1.896127    1.827621    0.065562 O.3       1 <1>        -0.342026 
      9 C          -2.244960    1.390112   -0.082987 C.ar      1 <1>         0.099001 
     10 C           1.039719   -3.208016    0.129197 C.ar      1 <1>         0.103079 
     11 C           2.810226   -2.040857   -1.197637 C.ar      1 <1>        -0.028519 
     12 C          -1.757942    2.773407    0.080872 C.ar      1 <1>         0.084561 
     13 O           0.262589    4.025127    0.245862 O.2       1 <1>        -0.284262 
     14 C           2.423782    1.423376    1.344531 C.3       1 <1>         0.043278 
     15 C          -3.620606    1.132815   -0.122743 C.ar      1 <1>        -0.000529 
     16 C           2.327823   -3.217149   -0.608253 C.ar      1 <1>         0.105440 
     17 O           0.543168   -4.378154    0.705417 O.3       1 <1>        -0.357255 
     18 C          -2.671306    3.851408    0.195919 C.ar      1 <1>         0.088401 
     19 C          -4.593886    2.248381   -0.002182 C.ar      1 <1>         0.077519 
     20 O           3.056393   -4.402598   -0.712301 O.3       1 <1>        -0.345349 
     21 C          -4.128201    3.566169    0.151291 C.ar      1 <1>        -0.001302 
     22 O          -2.197858    5.155399    0.349603 O.3       1 <1>        -0.358954 
     23 O          -5.969221    2.012310   -0.038817 O.3       1 <1>        -0.359667 
     24 C           4.129907   -4.506686    0.237102 C.3       1 <1>         0.043135 
     25 H          -0.625462   -2.019305    0.791889 H         1 <1>         0.065076 
     26 H           2.425420    0.116094   -1.555265 H         1 <1>         0.062506 
     27 H           3.748658   -2.056804   -1.741111 H         1 <1>         0.064430 
     28 H           3.515445    1.553125    1.307702 H         1 <1>         0.052873 
     29 H           2.026329    2.067449    2.145272 H         1 <1>         0.052873 
     30 H           2.211509    0.372042    1.591737 H         1 <1>         0.052873 
     31 H          -3.964173    0.111622   -0.243066 H         1 <1>         0.066947 
     32 H           1.088226   -5.127631    0.487458 H         1 <1>         0.217422 
     33 H          -4.848545    4.371930    0.237326 H         1 <1>         0.066923 
     34 H          -2.882863    5.811438    0.409734 H         1 <1>         0.217342 
     35 H          -6.199254    1.095570   -0.140302 H         1 <1>         0.217316 
     36 H           4.633822   -5.472476    0.084464 H         1 <1>         0.052871 
     37 H           3.743229   -4.468917    1.267726 H         1 <1>         0.052871 
     38 H           4.865296   -3.699569    0.094636 H         1 <1>         0.052871 
@<TRIPOS>BOND
     1    1    2 1    
     2    1    3 2    
     3    1    4 1    
     4    2    5 1    
     5    2    6 2    
     6    3    7 1    
     7    3    8 1    
     8    4    9 1    
     9    5   10 2    
    10    5   25 1    
    11    6   11 1    
    12    6   26 1    
    13    7   12 1    
    14    7   13 2    
    15    8   14 1    
    16    9   12 1    
    17    9   15 2    
    18   10   16 1    
    19   10   17 1    
    20   11   16 2    
    21   11   27 1    
    22   12   18 2    
    23   14   28 1    
    24   14   29 1    
    25   14   30 1    
    26   15   19 1    
    27   15   31 1    
    28   16   20 1    
    29   17   32 1    
    30   18   21 1    
    31   18   22 1    
    32   19   21 2    
    33   19   23 1    
    34   20   24 1    
    35   21   33 1    
    36   22   34 1    
    37   23   35 1    
    38   24   36 1    
    39   24   37 1    
    40   24   38 1    
@<TRIPOS>SUBSTRUCTURE
     1 ****        1 TEMP              0 ****  ****    0 ROOT 
@<TRIPOS>NORMAL
@<TRIPOS>FF_PBC
FORCE_FIELD_SETUP_FEATURE Force Field Setup information
v1.0  0 0.000000 0.000000 0.000000 0.000000 0.000000 0.000000 NONE 0 0 0 0 1 0 0 0 0 0 0 0 0
