@<TRIPOS>MOLECULE
MOL000173
   33    35     1     1     0
SMALL
GASTEIGER


@<TRIPOS>ATOM
      1 C          -0.616843    2.344690    0.038437 C.ar      1 <1>         0.084493 
      2 C          -1.096044    0.945785    0.004548 C.ar      1 <1>         0.128723 
      3 C           0.877911    2.519035    0.061323 C.2       1 <1>         0.193595 
      4 C          -1.510553    3.442717    0.048526 C.ar      1 <1>         0.088482 
      5 C          -2.548103    0.718400   -0.018771 C.ar      1 <1>         0.136793 
      6 O          -0.167581   -0.113457   -0.004383 O.3       1 <1>        -0.305125 
      7 C           1.696939    1.304632    0.047941 C.2       1 <1>         0.016921 
      8 O           1.407698    3.617926    0.089956 O.2       1 <1>        -0.287016 
      9 C          -2.970928    3.188089    0.024548 C.ar      1 <1>         0.001243 
     10 O          -1.013046    4.746759    0.080744 O.3       1 <1>        -0.358953 
     11 C          -3.465356    1.886825   -0.007569 C.ar      1 <1>         0.107532 
     12 O          -3.137527   -0.554171   -0.051568 O.3       1 <1>        -0.342928 
     13 C           1.173347    0.068424    0.016622 C.2       1 <1>         0.093972 
     14 O          -4.846972    1.689188   -0.029377 O.3       1 <1>        -0.357150 
     15 C          -2.368887   -1.759750   -0.065119 C.3       1 <1>         0.043243 
     16 C           2.054685   -1.172904    0.003437 C.ar      1 <1>         0.005596 
     17 C           1.406879   -2.509803   -0.030850 C.ar      1 <1>        -0.052112 
     18 C           3.507651   -1.157219    0.021995 C.ar      1 <1>        -0.052112 
     19 C           2.157897   -3.700519   -0.044718 C.ar      1 <1>        -0.061122 
     20 C           4.285710   -2.419451    0.007119 C.ar      1 <1>        -0.061122 
     21 C           3.636372   -3.652952   -0.025183 C.ar      1 <1>        -0.061721 
     22 H           2.759649    1.520483    0.066080 H         1 <1>         0.068219 
     23 H          -3.671715    4.015470    0.031804 H         1 <1>         0.067008 
     24 H          -1.683688    5.420114    0.085185 H         1 <1>         0.217342 
     25 H          -5.063223    0.761546   -0.050471 H         1 <1>         0.217424 
     26 H          -3.067773   -2.608491   -0.090883 H         1 <1>         0.052872 
     27 H          -1.741204   -1.799060   -0.967805 H         1 <1>         0.052872 
     28 H          -1.765011   -1.834671    0.851449 H         1 <1>         0.052872 
     29 H           0.331258   -2.588799   -0.045897 H         1 <1>         0.062424 
     30 H           4.077355   -0.239594    0.047055 H         1 <1>         0.062424 
     31 H           1.653176   -4.661341   -0.069878 H         1 <1>         0.061777 
     32 H           5.370699   -2.382225    0.021518 H         1 <1>         0.061777 
     33 H           4.209199   -4.574926   -0.036006 H         1 <1>         0.061759 
@<TRIPOS>BOND
     1    1    2 1    
     2    1    3 1    
     3    1    4 2    
     4    2    5 2    
     5    2    6 1    
     6    3    7 1    
     7    3    8 2    
     8    4    9 1    
     9    4   10 1    
    10    5   11 1    
    11    5   12 1    
    12    6   13 1    
    13    7   13 2    
    14    7   22 1    
    15    9   11 2    
    16    9   23 1    
    17   10   24 1    
    18   11   14 1    
    19   12   15 1    
    20   13   16 1    
    21   14   25 1    
    22   15   26 1    
    23   15   27 1    
    24   15   28 1    
    25   16   17 1    
    26   16   18 2    
    27   17   19 2    
    28   17   29 1    
    29   18   20 1    
    30   18   30 1    
    31   19   21 1    
    32   19   31 1    
    33   20   21 2    
    34   20   32 1    
    35   21   33 1    
@<TRIPOS>SUBSTRUCTURE
     1 ****        1 TEMP              0 ****  ****    0 ROOT 
@<TRIPOS>NORMAL
@<TRIPOS>FF_PBC
FORCE_FIELD_SETUP_FEATURE Force Field Setup information
v1.0  0 0.000000 0.000000 0.000000 0.000000 0.000000 0.000000 NONE 0 0 0 0 1 0 0 0 0 0 0 0 0
