@<TRIPOS>MOLECULE
MOL002122
   26    27     1     1     0
SMALL
GASTEIGER


@<TRIPOS>ATOM
      1 C           0.525866    0.628932    1.441343 C.ar      1 <1>         0.018136 
      2 C           1.977908    0.636777    1.584728 C.ar      1 <1>         0.056443 
      3 C           0.296557   -0.277160    0.256526 C.2       1 <1>         0.090427 
      4 C          -0.305066    1.344247    2.283335 C.ar      1 <1>        -0.051369 
      5 C           2.447773   -0.262327    0.470923 C.2       1 <1>         0.299430 
      6 C           2.633098    1.350095    2.562599 C.ar      1 <1>        -0.048209 
      7 O           1.439715   -0.764795   -0.267060 O.3       1 <1>        -0.273634 
      8 C          -0.900645   -0.589872   -0.254166 C.2       1 <1>        -0.052747 
      9 C           0.346288    2.134643    3.359867 C.ar      1 <1>        -0.061082 
     10 O           3.621538   -0.513296    0.254474 O.2       1 <1>        -0.258805 
     11 C           1.789685    2.137743    3.497900 C.ar      1 <1>        -0.060982 
     12 C          -1.090838   -1.500501   -1.444883 C.3       1 <1>        -0.032268 
     13 C          -1.722323   -0.708066   -2.619656 C.3       1 <1>        -0.052380 
     14 C          -1.946143   -1.613783   -3.858420 C.3       1 <1>        -0.064997 
     15 H          -1.382943    1.332329    2.167761 H         1 <1>         0.062444 
     16 H           3.714687    1.335253    2.642993 H         1 <1>         0.062547 
     17 H          -1.794714   -0.168812    0.204509 H         1 <1>         0.059789 
     18 H          -0.263759    2.712701    4.046507 H         1 <1>         0.061777 
     19 H           2.257481    2.717274    4.287143 H         1 <1>         0.061779 
     20 H          -1.756828   -2.326924   -1.149270 H         1 <1>         0.030812 
     21 H          -0.135693   -1.939051   -1.775351 H         1 <1>         0.030812 
     22 H          -1.054524    0.125944   -2.893898 H         1 <1>         0.026559 
     23 H          -2.690439   -0.285157   -2.302333 H         1 <1>         0.026559 
     24 H          -2.395849   -1.030671   -4.677674 H         1 <1>         0.022987 
     25 H          -2.622652   -2.445952   -3.608241 H         1 <1>         0.022987 
     26 H          -0.988683   -2.029374   -4.209455 H         1 <1>         0.022987 
@<TRIPOS>BOND
     1    1    2 1    
     2    1    3 1    
     3    1    4 2    
     4    2    5 1    
     5    2    6 2    
     6    3    7 1    
     7    3    8 2    
     8    4    9 1    
     9    4   15 1    
    10    5    7 1    
    11    5   10 2    
    12    6   11 1    
    13    6   16 1    
    14    8   12 1    
    15    8   17 1    
    16    9   11 2    
    17    9   18 1    
    18   11   19 1    
    19   12   13 1    
    20   12   20 1    
    21   12   21 1    
    22   13   14 1    
    23   13   22 1    
    24   13   23 1    
    25   14   24 1    
    26   14   25 1    
    27   14   26 1    
@<TRIPOS>SUBSTRUCTURE
     1 ****        1 TEMP              0 ****  ****    0 ROOT 
@<TRIPOS>NORMAL
@<TRIPOS>FF_PBC
FORCE_FIELD_SETUP_FEATURE Force Field Setup information
v1.0  0 0.000000 0.000000 0.000000 0.000000 0.000000 0.000000 NONE 0 0 0 0 1 0 0 0 0 0 0 0 0
