@<TRIPOS>MOLECULE
MOL000197
   26    25     1     1     0
SMALL
GASTEIGER


@<TRIPOS>ATOM
      1 C           1.209146   -2.057624    0.000031 C.2       1 <1>        -0.054697 
      2 C          -0.049448   -1.207028    0.000003 C.3       1 <1>        -0.024807 
      3 C           0.990333   -3.527641   -0.000023 C.2       1 <1>        -0.066221 
      4 C           2.436168   -1.513144    0.000101 C.2       1 <1>        -0.095504 
      5 C           0.107526    0.339016    0.000058 C.3       1 <1>        -0.030554 
      6 C           1.903213   -4.509176   -0.000038 C.2       1 <1>        -0.098452 
      7 C          -1.228882    1.045984    0.000017 C.2       1 <1>        -0.084980 
      8 C          -1.389590    2.379035   -0.000061 C.2       1 <1>        -0.079608 
      9 C          -2.784386    2.964303   -0.000121 C.3       1 <1>        -0.044049 
     10 C          -0.251561    3.377166   -0.000112 C.3       1 <1>        -0.044049 
     11 H          -0.633164   -1.486424   -0.892348 H         1 <1>         0.031595 
     12 H          -0.633244   -1.486481    0.892281 H         1 <1>         0.031595 
     13 H          -0.051566   -3.854317   -0.000054 H         1 <1>         0.061433 
     14 H           3.347442   -2.104549    0.000124 H         1 <1>         0.053749 
     15 H           2.619118   -0.441588    0.000141 H         1 <1>         0.053749 
     16 H           0.661074    0.644445    0.902468 H         1 <1>         0.031053 
     17 H           0.661155    0.644480   -0.902292 H         1 <1>         0.031053 
     18 H           1.581945   -5.551730   -0.000078 H         1 <1>         0.053489 
     19 H           2.978146   -4.347642   -0.000014 H         1 <1>         0.053489 
     20 H          -2.129750    0.430188    0.000043 H         1 <1>         0.057155 
     21 H          -2.773641    4.065010    0.000449 H         1 <1>         0.027427 
     22 H          -3.326999    2.625503   -0.895764 H         1 <1>         0.027427 
     23 H          -3.327530    2.624604    0.894862 H         1 <1>         0.027427 
     24 H           0.747389    2.920737   -0.000051 H         1 <1>         0.027427 
     25 H          -0.331384    4.013366   -0.894419 H         1 <1>         0.027427 
     26 H          -0.331412    4.013503    0.894095 H         1 <1>         0.027427 
@<TRIPOS>BOND
     1    1    2 1    
     2    1    3 1    
     3    1    4 2    
     4    2    5 1    
     5    2   11 1    
     6    2   12 1    
     7    3    6 2    
     8    3   13 1    
     9    4   14 1    
    10    4   15 1    
    11    5    7 1    
    12    5   16 1    
    13    5   17 1    
    14    6   18 1    
    15    6   19 1    
    16    7    8 2    
    17    7   20 1    
    18    8    9 1    
    19    8   10 1    
    20    9   21 1    
    21    9   22 1    
    22    9   23 1    
    23   10   24 1    
    24   10   25 1    
    25   10   26 1    
@<TRIPOS>SUBSTRUCTURE
     1 ****        1 TEMP              0 ****  ****    0 ROOT 
@<TRIPOS>NORMAL
@<TRIPOS>FF_PBC
FORCE_FIELD_SETUP_FEATURE Force Field Setup information
v1.0  0 0.000000 0.000000 0.000000 0.000000 0.000000 0.000000 NONE 0 0 0 0 1 0 0 0 0 0 0 0 0
