@<TRIPOS>MOLECULE
MOL002109
   56    60     1     1     0
SMALL
GASTEIGER


@<TRIPOS>ATOM
      1 C           2.452943    1.050862    0.508288 C.2       1 <1>         0.295473 
      2 C           1.165425    0.429214    0.819035 C.2       1 <1>         0.036461 
      3 C           1.460887   -0.842119    1.056715 C.2       1 <1>        -0.007848 
      4 C           2.922264   -0.909530    0.880289 C.2       1 <1>         0.086163 
      5 O           3.516288    0.243699    0.544685 O.3       1 <1>        -0.274201 
      6 C          -0.198390    1.048154    0.870913 C.3       1 <1>         0.027180 
      7 C          -1.302727    0.045140    1.301823 C.3       1 <1>        -0.024964 
      8 C          -0.789283   -1.214768    2.058962 C.3       1 <1>        -0.045116 
      9 C           0.456248   -1.897070    1.425695 C.3       1 <1>        -0.024498 
     10 C          -0.824761    1.091080   -0.539525 C.3       1 <1>         0.111409 
     11 C          -1.717664   -0.123763   -0.181262 C.3       1 <1>        -0.003301 
     12 C          -1.472248    2.384187   -0.966974 C.2       1 <1>        -0.023591 
     13 O           0.025040    0.748825   -1.658786 O.3       1 <1>        -0.299442 
     14 C          -2.269261    3.284677   -0.062635 C.3       1 <1>        -0.024527 
     15 C          -3.318821    4.040575   -0.927682 C.3       1 <1>        -0.030640 
     16 C          -2.789890    4.494134   -2.275298 C.2       1 <1>        -0.082971 
     17 C          -1.807104    3.837649   -2.906222 C.2       1 <1>        -0.052741 
     18 C          -1.230263    2.666859   -2.237826 C.2       1 <1>         0.048204 
     19 C          -0.313695    1.599190   -2.629757 C.2       1 <1>         0.294689 
     20 O           0.130052    1.499933   -3.761062 O.2       1 <1>        -0.259196 
     21 C          -3.229089   -0.031025   -0.525880 C.3       1 <1>        -0.047223 
     22 C          -3.989032   -1.288710   -0.026619 C.3       1 <1>        -0.055551 
     23 C          -5.493773   -1.223920   -0.397147 C.3       1 <1>        -0.065266 
     24 O           2.548892    2.235801    0.235371 O.2       1 <1>        -0.259156 
     25 C           3.656435   -2.017996    1.037299 C.2       1 <1>        -0.053070 
     26 C           5.155619   -2.017165    0.848186 C.3       1 <1>        -0.032278 
     27 C           5.714584   -3.448731    0.629947 C.3       1 <1>        -0.052380 
     28 C           7.252796   -3.430683    0.432510 C.3       1 <1>        -0.064997 
     29 H          -0.203326    2.002772    1.419840 H         1 <1>         0.038512 
     30 H          -2.098802    0.557538    1.869323 H         1 <1>         0.031139 
     31 H          -1.606549   -1.947167    2.153686 H         1 <1>         0.027135 
     32 H          -0.511307   -0.879920    3.072346 H         1 <1>         0.027135 
     33 H           0.191313   -2.459673    0.517947 H         1 <1>         0.031417 
     34 H           0.888272   -2.605033    2.150447 H         1 <1>         0.031417 
     35 H          -1.286798   -1.033622   -0.625867 H         1 <1>         0.033503 
     36 H          -2.747245    2.769519    0.782655 H         1 <1>         0.031415 
     37 H          -1.553415    4.012524    0.351018 H         1 <1>         0.031415 
     38 H          -3.693496    4.907502   -0.358776 H         1 <1>         0.031047 
     39 H          -4.171155    3.371626   -1.129359 H         1 <1>         0.031047 
     40 H          -3.236446    5.367973   -2.752127 H         1 <1>         0.057233 
     41 H          -1.436035    4.140843   -3.885222 H         1 <1>         0.062216 
     42 H          -3.324800    0.049619   -1.620733 H         1 <1>         0.026894 
     43 H          -3.698151    0.853843   -0.078594 H         1 <1>         0.026894 
     44 H          -3.893312   -1.364994    1.068781 H         1 <1>         0.026274 
     45 H          -3.545083   -2.192937   -0.475496 H         1 <1>         0.026274 
     46 H          -6.011494   -2.126130   -0.034814 H         1 <1>         0.022978 
     47 H          -5.617857   -1.163641   -1.489558 H         1 <1>         0.022978 
     48 H          -5.966466   -0.341604    0.061767 H         1 <1>         0.022978 
     49 H           3.165263   -2.948971    1.317193 H         1 <1>         0.059779 
     50 H           5.612921   -1.580412    1.750029 H         1 <1>         0.030812 
     51 H           5.423221   -1.387973   -0.016232 H         1 <1>         0.030812 
     52 H           5.237491   -3.896239   -0.257720 H         1 <1>         0.026559 
     53 H           5.473310   -4.074491    1.505262 H         1 <1>         0.026559 
     54 H           7.630105   -4.456466    0.295448 H         1 <1>         0.022987 
     55 H           7.748343   -2.990641    1.311904 H         1 <1>         0.022987 
     56 H           7.519731   -2.838343   -0.456493 H         1 <1>         0.022987 
@<TRIPOS>BOND
     1    1    2 1    
     2    1    5 1    
     3    1   24 2    
     4    2    3 2    
     5    2    6 1    
     6    3    4 1    
     7    3    9 1    
     8    4    5 1    
     9    4   25 2    
    10    6    7 1    
    11    6   10 1    
    12    6   29 1    
    13    7    8 1    
    14    7   11 1    
    15    7   30 1    
    16    8    9 1    
    17    8   31 1    
    18    8   32 1    
    19    9   33 1    
    20    9   34 1    
    21   10   11 1    
    22   10   12 1    
    23   10   13 1    
    24   11   21 1    
    25   11   35 1    
    26   12   14 1    
    27   12   18 2    
    28   13   19 1    
    29   14   15 1    
    30   14   36 1    
    31   14   37 1    
    32   15   16 1    
    33   15   38 1    
    34   15   39 1    
    35   16   17 2    
    36   16   40 1    
    37   17   18 1    
    38   17   41 1    
    39   18   19 1    
    40   19   20 2    
    41   21   22 1    
    42   21   42 1    
    43   21   43 1    
    44   22   23 1    
    45   22   44 1    
    46   22   45 1    
    47   23   46 1    
    48   23   47 1    
    49   23   48 1    
    50   25   26 1    
    51   25   49 1    
    52   26   27 1    
    53   26   50 1    
    54   26   51 1    
    55   27   28 1    
    56   27   52 1    
    57   27   53 1    
    58   28   54 1    
    59   28   55 1    
    60   28   56 1    
@<TRIPOS>SUBSTRUCTURE
     1 ****        1 TEMP              0 ****  ****    0 ROOT 
@<TRIPOS>NORMAL
@<TRIPOS>FF_PBC
FORCE_FIELD_SETUP_FEATURE Force Field Setup information
v1.0  0 0.000000 0.000000 0.000000 0.000000 0.000000 0.000000 NONE 0 0 0 0 1 0 0 0 0 0 0 0 0
