@<TRIPOS>MOLECULE
MOL002565
   34    37     1     1     0
SMALL
GASTEIGER


@<TRIPOS>ATOM
      1 C          -0.892371   -1.239138   -0.308934 C.ar      1 <1>        -0.031439 
      2 C           0.482694   -1.369535   -0.562935 C.ar      1 <1>        -0.051186 
      3 C           1.364322   -0.177698   -0.540585 C.ar      1 <1>         0.012402 
      4 C           0.812800    1.097075   -0.246846 C.ar      1 <1>         0.084294 
      5 C          -0.639117    1.223807    0.014649 C.ar      1 <1>        -0.001557 
      6 C          -1.473816    0.095738   -0.014163 C.ar      1 <1>         0.075045 
      7 C           2.855849   -0.339347   -0.835486 C.3       1 <1>         0.101492 
      8 C           3.603953    1.029425   -0.892863 C.3       1 <1>         0.041402 
      9 C           2.991754    1.998700    0.141098 C.3       1 <1>         0.063812 
     10 O           1.619363    2.236859   -0.203662 O.3       1 <1>        -0.343558 
     11 O           3.486591   -1.199138    0.149739 O.3       1 <1>        -0.335751 
     12 C           4.794041   -0.737369    0.148368 C.ar      1 <1>         0.083036 
     13 C           4.983194    0.582375   -0.450241 C.ar      1 <1>        -0.009134 
     14 C           5.860316   -1.451212    0.672744 C.ar      1 <1>        -0.001356 
     15 C           7.216385   -0.849846    0.611927 C.ar      1 <1>         0.078275 
     16 C           7.388781    0.461284    0.010006 C.ar      1 <1>        -0.031262 
     17 C           6.219307    1.194797   -0.537564 C.ar      1 <1>        -0.053252 
     18 O          -2.838955    0.249354    0.235729 O.3       1 <1>        -0.359750 
     19 O           8.291251   -1.575670    1.141770 O.3       1 <1>        -0.347829 
     20 C           9.630289   -1.055201    1.133856 C.3       1 <1>         0.043027 
     21 H           3.600268    1.473092   -1.901984 H         1 <1>         0.040099 
     22 H           2.966729   -0.837422   -1.814144 H         1 <1>         0.065909 
     23 H          -1.526489   -2.119286   -0.328584 H         1 <1>         0.064331 
     24 H           0.906020   -2.346072   -0.775409 H         1 <1>         0.062270 
     25 H          -1.059518    2.199142    0.230294 H         1 <1>         0.066919 
     26 H           3.533169    2.957372    0.126647 H         1 <1>         0.057187 
     27 H           3.052165    1.576686    1.158235 H         1 <1>         0.057187 
     28 H           5.707728   -2.427671    1.116883 H         1 <1>         0.066926 
     29 H           8.361826    0.931471   -0.053655 H         1 <1>         0.064338 
     30 H           6.327116    2.175130   -0.988989 H         1 <1>         0.062198 
     31 H          -3.326334   -0.565836    0.203400 H         1 <1>         0.217315 
     32 H          10.283848   -1.803534    1.605826 H         1 <1>         0.052870 
     33 H           9.983172   -0.887451    0.104812 H         1 <1>         0.052870 
     34 H           9.694874   -0.122777    1.715366 H         1 <1>         0.052870 
@<TRIPOS>BOND
     1    1    2 2    
     2    1    6 1    
     3    1   23 1    
     4    2    3 1    
     5    2   24 1    
     6    3    4 2    
     7    3    7 1    
     8    4    5 1    
     9    4   10 1    
    10    5    6 2    
    11    5   25 1    
    12    6   18 1    
    13    7    8 1    
    14    7   11 1    
    15    7   22 1    
    16    8    9 1    
    17    8   13 1    
    18    8   21 1    
    19    9   10 1    
    20    9   26 1    
    21    9   27 1    
    22   11   12 1    
    23   12   13 1    
    24   12   14 2    
    25   13   17 2    
    26   14   15 1    
    27   14   28 1    
    28   15   16 2    
    29   15   19 1    
    30   16   17 1    
    31   16   29 1    
    32   17   30 1    
    33   18   31 1    
    34   19   20 1    
    35   20   32 1    
    36   20   33 1    
    37   20   34 1    
@<TRIPOS>SUBSTRUCTURE
     1 ****        1 TEMP              0 ****  ****    0 ROOT 
@<TRIPOS>NORMAL
@<TRIPOS>FF_PBC
FORCE_FIELD_SETUP_FEATURE Force Field Setup information
v1.0  0 0.000000 0.000000 0.000000 0.000000 0.000000 0.000000 NONE 0 0 0 0 1 0 0 0 0 0 0 0 0
