@<TRIPOS>MOLECULE
MOL004853
   44    46     1     1     0
SMALL
GASTEIGER


@<TRIPOS>ATOM
      1 C          -1.992120    0.130044   -0.165244 C.ar      1 <1>         0.080983 
      2 C          -1.560554    1.548709   -0.016830 C.ar      1 <1>         0.016577 
      3 C          -0.188131    1.845808    0.035433 C.ar      1 <1>         0.091864 
      4 C           0.809368    0.747727    0.020148 C.ar      1 <1>         0.084831 
      5 C           0.411657   -0.582822   -0.049669 C.ar      1 <1>         0.099019 
      6 C          -1.030549   -0.901273   -0.166012 C.ar      1 <1>        -0.000251 
      7 C           2.290709    0.998864    0.077248 C.2       1 <1>         0.223075 
      8 C           3.199969   -0.158343    0.050517 C.2       1 <1>         0.151806 
      9 C           2.701633   -1.409401    0.004449 C.2       1 <1>         0.123622 
     10 O           1.364596   -1.608809   -0.030816 O.3       1 <1>        -0.305131 
     11 C           3.535589   -2.682543   -0.024905 C.ar      1 <1>         0.008296 
     12 O           2.738027    2.134601    0.133276 O.2       1 <1>        -0.284270 
     13 C           2.823824   -3.953187   -0.334938 C.ar      1 <1>        -0.049598 
     14 C           3.495426   -5.177697   -0.400188 C.ar      1 <1>        -0.031302 
     15 C           4.954642   -5.244388   -0.163101 C.ar      1 <1>         0.072619 
     16 C           5.647986   -4.066902    0.135692 C.ar      1 <1>        -0.031302 
     17 C           4.927627   -2.775693    0.220224 C.ar      1 <1>        -0.049598 
     18 O          -3.348626   -0.165008   -0.323326 O.3       1 <1>        -0.359385 
     19 O           0.221329    3.181170    0.105824 O.3       1 <1>        -0.358672 
     20 O           4.519734    0.052581    0.055984 O.3       1 <1>        -0.354461 
     21 O           5.604661   -6.475007   -0.246214 O.3       1 <1>        -0.359832 
     22 C          -2.541561    2.733657    0.063797 C.3       1 <1>        -0.004339 
     23 C          -3.963364    2.490806    0.519680 C.2       1 <1>        -0.080815 
     24 C          -4.981573    3.332047    0.267709 C.2       1 <1>        -0.079306 
     25 C          -6.403300    2.982228    0.652431 C.3       1 <1>        -0.044040 
     26 C          -4.814323    4.676487   -0.414189 C.3       1 <1>        -0.044040 
     27 H          -1.326130   -1.939729   -0.265370 H         1 <1>         0.066956 
     28 H           1.756057   -3.942583   -0.518023 H         1 <1>         0.062504 
     29 H           2.952521   -6.087475   -0.628105 H         1 <1>         0.064339 
     30 H           6.720296   -4.085256    0.304973 H         1 <1>         0.064339 
     31 H           5.531209   -1.917543    0.480021 H         1 <1>         0.062504 
     32 H          -3.557572   -1.087870   -0.402026 H         1 <1>         0.217328 
     33 H           0.909861    3.355764   -0.528735 H         1 <1>         0.217354 
     34 H           4.758437    0.974139    0.097133 H         1 <1>         0.217537 
     35 H           6.522183   -6.460318    0.001603 H         1 <1>         0.217313 
     36 H          -2.543305    3.132317   -0.958600 H         1 <1>         0.035721 
     37 H          -2.132734    3.492158    0.745916 H         1 <1>         0.035721 
     38 H          -4.168540    1.581703    1.080057 H         1 <1>         0.057473 
     39 H          -6.947959    3.868334    1.017786 H         1 <1>         0.027427 
     40 H          -6.451926    2.210874    1.434595 H         1 <1>         0.027427 
     41 H          -6.910126    2.607600   -0.247797 H         1 <1>         0.027427 
     42 H          -3.773923    5.012658   -0.525472 H         1 <1>         0.027427 
     43 H          -5.318700    5.454000    0.179456 H         1 <1>         0.027427 
     44 H          -5.273809    4.637987   -1.411585 H         1 <1>         0.027427 
@<TRIPOS>BOND
     1    1    2 1    
     2    1    6 2    
     3    1   18 1    
     4    2    3 2    
     5    2   22 1    
     6    3    4 1    
     7    3   19 1    
     8    4    5 2    
     9    4    7 1    
    10    5    6 1    
    11    5   10 1    
    12    6   27 1    
    13    7    8 1    
    14    7   12 2    
    15    8    9 2    
    16    8   20 1    
    17    9   10 1    
    18    9   11 1    
    19   11   13 1    
    20   11   17 2    
    21   13   14 2    
    22   13   28 1    
    23   14   15 1    
    24   14   29 1    
    25   15   16 2    
    26   15   21 1    
    27   16   17 1    
    28   16   30 1    
    29   17   31 1    
    30   18   32 1    
    31   19   33 1    
    32   20   34 1    
    33   21   35 1    
    34   22   23 1    
    35   22   36 1    
    36   22   37 1    
    37   23   24 2    
    38   23   38 1    
    39   24   25 1    
    40   24   26 1    
    41   25   39 1    
    42   25   40 1    
    43   25   41 1    
    44   26   42 1    
    45   26   43 1    
    46   26   44 1    
@<TRIPOS>SUBSTRUCTURE
     1 ****        1 TEMP              0 ****  ****    0 ROOT 
@<TRIPOS>NORMAL
@<TRIPOS>FF_PBC
FORCE_FIELD_SETUP_FEATURE Force Field Setup information
v1.0  0 0.000000 0.000000 0.000000 0.000000 0.000000 0.000000 NONE 0 0 0 0 1 0 0 0 0 0 0 0 0
