@<TRIPOS>MOLECULE
MOL000476
   33    35     1     1     0
SMALL
GASTEIGER


@<TRIPOS>ATOM
      1 C          -1.153658    0.420832   -0.078975 C.ar      1 <1>         0.037995 
      2 C          -0.805557   -1.007280    0.107525 C.ar      1 <1>         0.062970 
      3 C          -0.060225    1.465258   -0.102348 C.2       1 <1>         0.194755 
      4 C          -2.509410    0.798215   -0.234733 C.ar      1 <1>        -0.020014 
      5 C           0.645800   -1.398212    0.269099 C.2       1 <1>         0.199440 
      6 C          -1.848963   -1.993483    0.131096 C.ar      1 <1>         0.086516 
      7 C           1.391533    1.063386    0.034409 C.ar      1 <1>         0.035809 
      8 O          -0.352644    2.642614   -0.234568 O.2       1 <1>        -0.286608 
      9 C          -3.591251   -0.213127   -0.220722 C.ar      1 <1>         0.078964 
     10 C           1.746772   -0.363561    0.221012 C.ar      1 <1>         0.062824 
     11 O           0.933824   -2.572949    0.439578 O.2       1 <1>        -0.286435 
     12 C          -3.259598   -1.574558   -0.038408 C.ar      1 <1>        -0.001181 
     13 O          -1.571076   -3.352179    0.309276 O.3       1 <1>        -0.359019 
     14 C           2.414961    2.042861   -0.015130 C.ar      1 <1>        -0.047151 
     15 O          -4.912153    0.221072   -0.391371 O.3       1 <1>        -0.347809 
     16 C           3.126410   -0.739825    0.352124 C.ar      1 <1>         0.084321 
     17 C           3.839889    1.655336    0.116022 C.ar      1 <1>        -0.047307 
     18 C          -5.996560   -0.701996   -0.584885 C.3       1 <1>         0.043028 
     19 C           4.175996    0.303954    0.295533 C.ar      1 <1>        -0.028282 
     20 O           3.512857   -2.071418    0.531770 O.3       1 <1>        -0.359094 
     21 C           4.915854    2.744373    0.051306 C.3       1 <1>        -0.039609 
     22 H          -2.775817    1.840927   -0.368905 H         1 <1>         0.065057 
     23 H          -4.017383   -2.346669   -0.018118 H         1 <1>         0.066930 
     24 H          -0.647020   -3.552830    0.426572 H         1 <1>         0.217341 
     25 H           2.160449    3.088962   -0.150378 H         1 <1>         0.062744 
     26 H          -6.908819   -0.113476   -0.762062 H         1 <1>         0.052870 
     27 H          -5.817252   -1.339750   -1.464305 H         1 <1>         0.052870 
     28 H          -6.157302   -1.323529    0.309043 H         1 <1>         0.052870 
     29 H           5.212821    0.002974    0.395250 H         1 <1>         0.064604 
     30 H           2.787973   -2.688553    0.569175 H         1 <1>         0.217340 
     31 H           5.931417    2.320820    0.045275 H         1 <1>         0.027755 
     32 H           4.777289    3.337403   -0.865153 H         1 <1>         0.027755 
     33 H           4.810740    3.404008    0.925500 H         1 <1>         0.027755 
@<TRIPOS>BOND
     1    1    2 1    
     2    1    3 1    
     3    1    4 2    
     4    2    5 1    
     5    2    6 2    
     6    3    7 1    
     7    3    8 2    
     8    4    9 1    
     9    4   22 1    
    10    5   10 1    
    11    5   11 2    
    12    6   12 1    
    13    6   13 1    
    14    7   10 1    
    15    7   14 2    
    16    9   12 2    
    17    9   15 1    
    18   10   16 2    
    19   12   23 1    
    20   13   24 1    
    21   14   17 1    
    22   14   25 1    
    23   15   18 1    
    24   16   19 1    
    25   16   20 1    
    26   17   19 2    
    27   17   21 1    
    28   18   26 1    
    29   18   27 1    
    30   18   28 1    
    31   19   29 1    
    32   20   30 1    
    33   21   31 1    
    34   21   32 1    
    35   21   33 1    
@<TRIPOS>SUBSTRUCTURE
     1 ****        1 TEMP              0 ****  ****    0 ROOT 
@<TRIPOS>NORMAL
@<TRIPOS>FF_PBC
FORCE_FIELD_SETUP_FEATURE Force Field Setup information
v1.0  0 0.000000 0.000000 0.000000 0.000000 0.000000 0.000000 NONE 0 0 0 0 1 0 0 0 0 0 0 0 0
