@<TRIPOS>MOLECULE
MOL002203
   57    56     1     1     0
SMALL
GASTEIGER


@<TRIPOS>ATOM
      1 C           1.861393    2.074484    1.098380 C.3       1 <1>        -0.052779 
      2 C           3.137292    1.276434    0.707278 C.3       1 <1>        -0.049616 
      3 C           1.942248    3.557479    0.639971 C.3       1 <1>        -0.053036 
      4 C           3.113077   -0.160539    1.300096 C.3       1 <1>        -0.034761 
      5 C           0.568675    4.287120    0.699812 C.3       1 <1>        -0.052596 
      6 C           4.261728   -0.981417    0.755533 C.2       1 <1>        -0.087932 
      7 C          -0.074686    4.277881    2.115573 C.3       1 <1>        -0.044055 
      8 C           4.192142   -2.242828    0.300896 C.2       1 <1>        -0.087932 
      9 C          -1.385014    5.112439    2.141446 C.3       1 <1>         0.033189 
     10 C           2.948116   -3.102586    0.276226 C.3       1 <1>        -0.034761 
     11 C          -2.087391    5.082687    3.475369 C.2       1 <1>         0.261905 
     12 C           2.141070   -2.840647   -1.024269 C.3       1 <1>        -0.049616 
     13 O          -3.269624    5.716732    3.493317 O.3       1 <1>        -0.318522 
     14 O          -1.609116    4.527014    4.451371 O.2       1 <1>        -0.264985 
     15 C           0.799846   -3.623018   -1.023567 C.3       1 <1>        -0.052779 
     16 C          -3.933949    5.680746    4.771551 C.3       1 <1>         0.045865 
     17 C          -0.016111   -3.360230   -2.319318 C.3       1 <1>        -0.053048 
     18 C          -1.375737   -4.111942   -2.284320 C.3       1 <1>        -0.053065 
     19 C          -2.212295   -3.835985   -3.562992 C.3       1 <1>        -0.053306 
     20 C          -3.586349   -4.556827   -3.502580 C.3       1 <1>        -0.055911 
     21 C          -4.434309   -4.258722   -4.766436 C.3       1 <1>        -0.065276 
     22 H           0.985025    1.594896    0.631446 H         1 <1>         0.026538 
     23 H           1.740842    2.034125    2.193022 H         1 <1>         0.026538 
     24 H           4.033365    1.807012    1.070431 H         1 <1>         0.026822 
     25 H           3.194254    1.210699   -0.392648 H         1 <1>         0.026822 
     26 H           2.678885    4.091718    1.264369 H         1 <1>         0.026529 
     27 H           2.297443    3.594828   -0.403449 H         1 <1>         0.026529 
     28 H           2.135206   -0.606237    1.071054 H         1 <1>         0.030732 
     29 H           3.211531   -0.109125    2.394907 H         1 <1>         0.030732 
     30 H           0.714581    5.332916    0.380591 H         1 <1>         0.026540 
     31 H          -0.123432    3.810494   -0.014979 H         1 <1>         0.026540 
     32 H           5.235209   -0.488716    0.730260 H         1 <1>         0.056896 
     33 H          -0.327891    3.245499    2.407485 H         1 <1>         0.027004 
     34 H           0.637519    4.687303    2.853397 H         1 <1>         0.027004 
     35 H           5.106745   -2.694278   -0.089148 H         1 <1>         0.056896 
     36 H          -1.159417    6.163781    1.902242 H         1 <1>         0.036606 
     37 H          -2.084520    4.720754    1.386156 H         1 <1>         0.036606 
     38 H           2.328820   -2.914488    1.166994 H         1 <1>         0.030732 
     39 H           3.242128   -4.165974    0.311314 H         1 <1>         0.030732 
     40 H           2.750001   -3.143076   -1.892028 H         1 <1>         0.026822 
     41 H           1.929923   -1.762587   -1.116862 H         1 <1>         0.026822 
     42 H           0.201994   -3.311030   -0.151417 H         1 <1>         0.026538 
     43 H           1.006508   -4.701756   -0.931135 H         1 <1>         0.026538 
     44 H          -4.879937    6.233928    4.668825 H         1 <1>         0.052962 
     45 H          -4.165655    4.646840    5.076065 H         1 <1>         0.052962 
     46 H          -3.326714    6.169665    5.550693 H         1 <1>         0.052962 
     47 H           0.566397   -3.695537   -3.193895 H         1 <1>         0.026529 
     48 H          -0.203036   -2.278463   -2.422199 H         1 <1>         0.026529 
     49 H          -1.946662   -3.783107   -1.400144 H         1 <1>         0.026528 
     50 H          -1.192038   -5.195557   -2.193314 H         1 <1>         0.026528 
     51 H          -1.655386   -4.184205   -4.447920 H         1 <1>         0.026520 
     52 H          -2.376469   -2.750164   -3.663033 H         1 <1>         0.026520 
     53 H          -4.142139   -4.219220   -2.611831 H         1 <1>         0.026265 
     54 H          -3.432048   -5.645645   -3.421290 H         1 <1>         0.026265 
     55 H          -5.405201   -4.776245   -4.702293 H         1 <1>         0.022978 
     56 H          -3.910848   -4.605267   -5.671582 H         1 <1>         0.022978 
     57 H          -4.618661   -3.176651   -4.855482 H         1 <1>         0.022978 
@<TRIPOS>BOND
     1    1    2 1    
     2    1    3 1    
     3    1   22 1    
     4    1   23 1    
     5    2    4 1    
     6    2   24 1    
     7    2   25 1    
     8    3    5 1    
     9    3   26 1    
    10    3   27 1    
    11    4    6 1    
    12    4   28 1    
    13    4   29 1    
    14    5    7 1    
    15    5   30 1    
    16    5   31 1    
    17    6    8 2    
    18    6   32 1    
    19    7    9 1    
    20    7   33 1    
    21    7   34 1    
    22    8   10 1    
    23    8   35 1    
    24    9   11 1    
    25    9   36 1    
    26    9   37 1    
    27   10   12 1    
    28   10   38 1    
    29   10   39 1    
    30   11   13 1    
    31   11   14 2    
    32   12   15 1    
    33   12   40 1    
    34   12   41 1    
    35   13   16 1    
    36   15   17 1    
    37   15   42 1    
    38   15   43 1    
    39   16   44 1    
    40   16   45 1    
    41   16   46 1    
    42   17   18 1    
    43   17   47 1    
    44   17   48 1    
    45   18   19 1    
    46   18   49 1    
    47   18   50 1    
    48   19   20 1    
    49   19   51 1    
    50   19   52 1    
    51   20   21 1    
    52   20   53 1    
    53   20   54 1    
    54   21   55 1    
    55   21   56 1    
    56   21   57 1    
@<TRIPOS>SUBSTRUCTURE
     1 ****        1 TEMP              0 ****  ****    0 ROOT 
@<TRIPOS>NORMAL
@<TRIPOS>FF_PBC
FORCE_FIELD_SETUP_FEATURE Force Field Setup information
v1.0  0 0.000000 0.000000 0.000000 0.000000 0.000000 0.000000 NONE 0 0 0 0 1 0 0 0 0 0 0 0 0
