@<TRIPOS>MOLECULE
MOL006370
   43    44     1     1     0
SMALL
GASTEIGER


@<TRIPOS>ATOM
      1 C           1.802409    1.251773   -1.661016 C.3       1 <1>         0.014920 
      2 C           0.258489    1.231737   -1.890582 C.3       1 <1>         0.099678 
      3 C          -0.313185    2.666524   -2.094071 C.3       1 <1>         0.107846 
      4 C           0.427438    3.650301   -1.158002 C.3       1 <1>         0.086606 
      5 C           1.917427    3.788412   -1.587562 C.3       1 <1>         0.014057 
      6 C           2.493818    2.503492   -2.259738 C.3       1 <1>         0.155106 
      7 O          -0.232271    4.929415   -1.218050 O.3       1 <1>        -0.389039 
      8 O           3.897169    2.400437   -1.941241 O.3       1 <1>        -0.378361 
      9 O          -1.727886    2.672050   -1.819996 O.3       1 <1>        -0.386644 
     10 O          -0.389842    0.670045   -0.725580 O.3       1 <1>        -0.305768 
     11 C          -2.403610   -4.612323    4.486882 C.ar      1 <1>         0.102220 
     12 C          -2.164922   -3.209119    4.539359 C.ar      1 <1>        -0.028849 
     13 C          -1.561728   -2.511514    3.378775 C.ar      1 <1>        -0.051998 
     14 C          -1.225862   -3.233192    2.198266 C.ar      1 <1>        -0.022259 
     15 C          -1.472259   -4.696425    2.160879 C.ar      1 <1>        -0.022249 
     16 C          -2.041028   -5.367326    3.261186 C.ar      1 <1>         0.102746 
     17 O          -2.972748   -5.296863    5.566078 O.3       1 <1>        -0.357274 
     18 O          -2.259559   -6.743883    3.187237 O.3       1 <1>        -0.357261 
     19 C          -0.619514   -2.575694    0.974792 C.2       1 <1>        -0.048856 
     20 C          -0.760600   -1.277139    0.673747 C.2       1 <1>         0.010502 
     21 C          -0.161713   -0.633994   -0.510561 C.2       1 <1>         0.286936 
     22 O           0.523657   -1.300541   -1.270237 O.2       1 <1>        -0.259868 
     23 C           2.341676    2.528135   -3.771209 C.2       1 <1>         0.291720 
     24 O           1.707134    1.684845   -4.386325 O.2       1 <1>        -0.261963 
     25 O           2.955990    3.539571   -4.390780 O.3       1 <1>        -0.329104 
     26 H           2.006374    1.264053   -0.578082 H         1 <1>         0.032407 
     27 H           2.269409    0.344032   -2.075715 H         1 <1>         0.032407 
     28 H          -0.023692    0.652175   -2.787771 H         1 <1>         0.062988 
     29 H          -0.171929    3.009673   -3.133741 H         1 <1>         0.064521 
     30 H           0.338026    3.242306   -0.134380 H         1 <1>         0.062084 
     31 H           2.025269    4.637418   -2.280717 H         1 <1>         0.032382 
     32 H           2.501102    4.029916   -0.684150 H         1 <1>         0.032382 
     33 H           0.147698    5.572678   -0.626893 H         1 <1>         0.209891 
     34 H           4.406016    3.125203   -2.293221 H         1 <1>         0.210848 
     35 H          -2.094928    3.550358   -1.870826 H         1 <1>         0.210001 
     36 H          -2.421958   -2.639044    5.425809 H         1 <1>         0.064421 
     37 H          -1.380025   -1.446184    3.455140 H         1 <1>         0.062425 
     38 H          -1.214876   -5.267830    1.276019 H         1 <1>         0.064993 
     39 H          -3.187183   -4.743830    6.309099 H         1 <1>         0.217422 
     40 H          -2.657597   -7.073229    3.987063 H         1 <1>         0.217422 
     41 H          -0.043429   -3.212604    0.302996 H         1 <1>         0.062526 
     42 H          -1.348137   -0.609047    1.298675 H         1 <1>         0.067735 
     43 H           2.832383    3.506230   -5.333557 H         1 <1>         0.220301 
@<TRIPOS>BOND
     1    2    1 1    
     2    1    6 1    
     3    1   26 1    
     4    1   27 1    
     5    2    3 1    
     6   10    2 1    
     7    2   28 1    
     8    3    4 1    
     9    3    9 1    
    10    3   29 1    
    11    4    5 1    
    12    4    7 1    
    13    4   30 1    
    14    6    5 1    
    15    5   31 1    
    16    5   32 1    
    17    6    8 1    
    18    6   23 1    
    19    7   33 1    
    20    8   34 1    
    21    9   35 1    
    22   21   10 1    
    23   12   11 2    
    24   16   11 1    
    25   11   17 1    
    26   13   12 1    
    27   12   36 1    
    28   14   13 2    
    29   13   37 1    
    30   14   15 1    
    31   19   14 1    
    32   15   16 2    
    33   15   38 1    
    34   16   18 1    
    35   17   39 1    
    36   18   40 1    
    37   20   19 2    
    38   19   41 1    
    39   20   21 1    
    40   20   42 1    
    41   21   22 2    
    42   23   24 2    
    43   23   25 1    
    44   25   43 1    
@<TRIPOS>SUBSTRUCTURE
     1 ****       11 TEMP              0 ****  ****    0 ROOT 
@<TRIPOS>NORMAL
@<TRIPOS>FF_PBC
FORCE_FIELD_SETUP_FEATURE Force Field Setup information
v1.0  0 0.000000 0.000000 0.000000 0.000000 0.000000 0.000000 NONE 0 0 0 0 1 0 0 0 0 0 0 0 0
