@<TRIPOS>MOLECULE
MOL004699
  129   135     1     1     0
SMALL
GASTEIGER


@<TRIPOS>ATOM
      1 O           2.274422   -5.187394   -1.185993 O.3       1 <1>        -0.340520 
      2 C           1.525174   -6.138336   -0.412652 C.3       1 <1>         0.188437 
      3 C           1.458282   -7.480419   -1.201848 C.3       1 <1>         0.134124 
      4 C           0.826019   -7.292475   -2.605008 C.3       1 <1>         0.114061 
      5 C           1.588591   -6.165907   -3.354419 C.3       1 <1>         0.111896 
      6 C           1.692272   -4.888223   -2.473428 C.3       1 <1>         0.113005 
      7 O           0.300641   -5.468395   -0.024515 O.3       1 <1>        -0.340053 
      8 C          -0.682114   -6.265311    0.679111 C.3       1 <1>         0.120486 
      9 C          -1.947548   -5.406809    0.948050 C.3       1 <1>         0.134483 
     10 C          -1.805759   -4.479828    2.195446 C.3       1 <1>         0.188127 
     11 O          -1.275308   -5.151387    3.354865 O.3       1 <1>        -0.343072 
     12 C          -0.050932   -5.872317    3.128376 C.3       1 <1>         0.087317 
     13 C          -0.257074   -6.934748    2.015618 C.3       1 <1>         0.109842 
     14 O           2.781998   -8.038391   -1.334596 O.3       1 <1>        -0.384104 
     15 O          -0.591660   -7.059103   -2.494091 O.3       1 <1>        -0.386401 
     16 O           2.907364   -6.675923   -3.650158 O.3       1 <1>        -0.386488 
     17 C           0.367470   -4.076406   -2.392842 C.3       1 <1>         0.073015 
     18 O           0.477294   -3.097719   -1.351862 O.3       1 <1>        -0.392366 
     19 O          -3.048254   -6.334741    1.105435 O.3       1 <1>        -0.384094 
     20 O          -1.149791   -3.220183    1.900980 O.3       1 <1>        -0.344807 
     21 C          -1.281598   -2.189399    2.922559 C.3       1 <1>         0.069510 
     22 C          -2.475349   -1.157320    2.800917 C.3       1 <1>         0.020633 
     23 C          -2.064418    0.173438    2.010070 C.3       1 <1>        -0.025395 
     24 C          -0.913551    0.057994    0.939660 C.3       1 <1>        -0.022510 
     25 C          -0.408302    1.507303    0.483389 C.3       1 <1>         0.000719 
     26 C          -1.308424    2.790164    0.623570 C.3       1 <1>        -0.016923 
     27 C          -2.099002    2.737890    1.982770 C.3       1 <1>        -0.046183 
     28 C          -1.812835    1.473181    2.845323 C.3       1 <1>        -0.048525 
     29 C           0.039876   -1.388663    2.931824 C.3       1 <1>        -0.025384 
     30 C           0.308317   -0.745648    1.548443 C.3       1 <1>        -0.044626 
     31 C           0.315778    1.520335   -0.892590 C.3       1 <1>         0.080545 
     32 C           0.791743    2.892626   -1.311617 C.2       1 <1>        -0.055289 
     33 C           0.531963    4.055484   -0.688333 C.2       1 <1>        -0.060744 
     34 C          -0.374733    4.096119    0.543178 C.3       1 <1>        -0.002626 
     35 C          -1.247949    5.409041    0.558198 C.3       1 <1>        -0.016608 
     36 C          -0.592380    6.722351    0.035350 C.3       1 <1>         0.064286 
     37 C           0.131477    6.516210   -1.342735 C.3       1 <1>         0.026310 
     38 C           0.844165    7.849910   -1.756295 C.3       1 <1>        -0.041883 
     39 C           1.857349    7.730744   -2.927337 C.3       1 <1>        -0.047178 
     40 C           2.918907    6.620693   -2.673101 C.3       1 <1>        -0.034297 
     41 C           2.188171    5.288592   -2.317049 C.3       1 <1>        -0.040647 
     42 C           1.173522    5.377686   -1.132133 C.3       1 <1>        -0.008707 
     43 C           1.181549   -4.957943    2.920424 C.3       1 <1>        -0.036060 
     44 O           0.888696   -7.793092    1.848385 O.3       1 <1>        -0.386569 
     45 C          -2.948691   -0.835383    4.264100 C.3       1 <1>         0.052209 
     46 O          -4.131629   -0.009949    4.251640 O.3       1 <1>        -0.394374 
     47 C          -3.755082   -1.805048    2.154841 C.3       1 <1>        -0.054821 
     48 C          -1.446078   -0.797649   -0.266074 C.3       1 <1>        -0.058926 
     49 C          -2.362124    2.753053   -0.542280 C.3       1 <1>        -0.058408 
     50 O           1.411431    0.583495   -0.760238 O.3       1 <1>        -0.375443 
     51 C           2.003203    0.121020   -1.990957 C.3       1 <1>         0.037218 
     52 C           0.674273    4.171046    1.720181 C.3       1 <1>        -0.055240 
     53 O           0.231946    7.223525    1.109726 O.3       1 <1>        -0.391114 
     54 C          -0.930722    6.126942   -2.428432 C.3       1 <1>         0.052730 
     55 O          -0.412598    6.009401   -3.764043 O.3       1 <1>        -0.394355 
     56 C           3.740362    6.410217   -3.984007 C.3       1 <1>        -0.059793 
     57 C           3.934048    7.038352   -1.560487 C.3       1 <1>        -0.059793 
     58 H           2.142311   -6.308817    0.479848 H         1 <1>         0.093753 
     59 H           0.887258   -8.238600   -0.646703 H         1 <1>         0.067095 
     60 H           0.971249   -8.239068   -3.156426 H         1 <1>         0.064758 
     61 H           1.068159   -5.939725   -4.301113 H         1 <1>         0.064673 
     62 H           2.425231   -4.204883   -2.932369 H         1 <1>         0.064668 
     63 H          -1.010625   -7.056058   -0.012556 H         1 <1>         0.065136 
     64 H          -2.135301   -4.777942    0.059943 H         1 <1>         0.067105 
     65 H          -2.831568   -4.269775    2.505052 H         1 <1>         0.093748 
     66 H           0.126255   -6.417202    4.071613 H         1 <1>         0.062075 
     67 H          -1.104594   -7.569771    2.334974 H         1 <1>         0.064594 
     68 H           3.355100   -7.469969   -1.843926 H         1 <1>         0.210110 
     69 H          -1.035660   -7.010648   -3.335663 H         1 <1>         0.210005 
     70 H           3.448318   -6.074332   -4.153582 H         1 <1>         0.210004 
     71 H           0.187964   -3.549518   -3.343655 H         1 <1>         0.058370 
     72 H          -0.515082   -4.701810   -2.199364 H         1 <1>         0.058370 
     73 H           0.607102   -3.530821   -0.509632 H         1 <1>         0.209508 
     74 H          -3.904149   -5.922050    1.172198 H         1 <1>         0.210111 
     75 H          -1.295094   -2.704877    3.898925 H         1 <1>         0.060308 
     76 H          -2.962993    0.449279    1.442981 H         1 <1>         0.031292 
     77 H           0.377457    1.744801    1.198301 H         1 <1>         0.033983 
     78 H          -3.186688    2.756516    1.800579 H         1 <1>         0.027097 
     79 H          -1.931691    3.615865    2.619215 H         1 <1>         0.027097 
     80 H          -2.491315    1.592622    3.699651 H         1 <1>         0.026847 
     81 H          -0.790933    1.506024    3.248555 H         1 <1>         0.026847 
     82 H           0.883741   -2.053521    3.171925 H         1 <1>         0.029048 
     83 H           0.017975   -0.626645    3.724101 H         1 <1>         0.029048 
     84 H           0.616722   -1.554790    0.871213 H         1 <1>         0.027150 
     85 H           1.231649   -0.164398    1.696297 H         1 <1>         0.027150 
     86 H          -0.381980    1.207345   -1.682714 H         1 <1>         0.064325 
     87 H           1.398056    2.863837   -2.207841 H         1 <1>         0.059746 
     88 H          -1.591198    5.620551    1.581776 H         1 <1>         0.029875 
     89 H          -2.155941    5.306004   -0.038493 H         1 <1>         0.029875 
     90 H          -1.397504    7.471447   -0.094918 H         1 <1>         0.059982 
     91 H           0.083592    8.605770   -2.011185 H         1 <1>         0.027247 
     92 H           1.430670    8.259168   -0.927062 H         1 <1>         0.027247 
     93 H           2.371357    8.697461   -3.062027 H         1 <1>         0.027063 
     94 H           1.325763    7.541196   -3.868831 H         1 <1>         0.027063 
     95 H           1.659134    4.937077   -3.213575 H         1 <1>         0.027632 
     96 H           2.972012    4.552681   -2.073263 H         1 <1>         0.027632 
     97 H           1.794582    5.672482   -0.276809 H         1 <1>         0.035287 
     98 H           1.291350   -4.308928    3.801452 H         1 <1>         0.025536 
     99 H           2.095559   -5.563876    2.831896 H         1 <1>         0.025536 
    100 H           1.087844   -4.329206    2.026040 H         1 <1>         0.025536 
    101 H           1.138232   -8.257275    2.641882 H         1 <1>         0.210002 
    102 H          -2.136983   -0.372428    4.848484 H         1 <1>         0.056334 
    103 H          -3.221182   -1.764072    4.796319 H         1 <1>         0.056334 
    104 H          -4.455510    0.208264    5.120968 H         1 <1>         0.209420 
    105 H          -3.556564   -2.278637    1.186925 H         1 <1>         0.023667 
    106 H          -4.216014   -2.557863    2.809184 H         1 <1>         0.023667 
    107 H          -4.547912   -1.059120    1.991377 H         1 <1>         0.023667 
    108 H          -1.675955   -1.818409    0.046042 H         1 <1>         0.023526 
    109 H          -2.353768   -0.402725   -0.734398 H         1 <1>         0.023526 
    110 H          -0.693760   -0.919882   -1.053012 H         1 <1>         0.023526 
    111 H          -2.832653    1.769770   -0.603309 H         1 <1>         0.023543 
    112 H          -3.207297    3.442641   -0.417201 H         1 <1>         0.023543 
    113 H          -1.913891    2.964535   -1.520175 H         1 <1>         0.023543 
    114 H           2.722348   -0.664323   -1.715476 H         1 <1>         0.052375 
    115 H           2.555430    0.905232   -2.526583 H         1 <1>         0.052375 
    116 H           1.255150   -0.327799   -2.662339 H         1 <1>         0.052375 
    117 H           1.020817    5.191021    1.911415 H         1 <1>         0.023830 
    118 H           1.591271    3.595929    1.513521 H         1 <1>         0.023830 
    119 H           0.288321    3.810430    2.680299 H         1 <1>         0.023830 
    120 H           0.472569    8.142414    1.069202 H         1 <1>         0.209802 
    121 H          -1.383885    5.156678   -2.192039 H         1 <1>         0.056353 
    122 H          -1.730400    6.886708   -2.438153 H         1 <1>         0.056353 
    123 H          -1.066407    5.782505   -4.419794 H         1 <1>         0.209421 
    124 H           3.090543    6.109542   -4.820337 H         1 <1>         0.023499 
    125 H           4.499378    5.624641   -3.846742 H         1 <1>         0.023499 
    126 H           4.254812    7.339534   -4.273583 H         1 <1>         0.023499 
    127 H           3.472312    7.222864   -0.582913 H         1 <1>         0.023499 
    128 H           4.458579    7.960772   -1.853075 H         1 <1>         0.023499 
    129 H           4.690791    6.251157   -1.421540 H         1 <1>         0.023499 
@<TRIPOS>BOND
     1    1    2 1    
     2    1    6 1    
     3    2    3 1    
     4    2    7 1    
     5    2   58 1    
     6    3    4 1    
     7    3   14 1    
     8    3   59 1    
     9    4    5 1    
    10    4   15 1    
    11    4   60 1    
    12    5    6 1    
    13    5   16 1    
    14    5   61 1    
    15    6   17 1    
    16    6   62 1    
    17    7    8 1    
    18    8    9 1    
    19    8   13 1    
    20    8   63 1    
    21    9   10 1    
    22    9   19 1    
    23    9   64 1    
    24   10   11 1    
    25   10   20 1    
    26   10   65 1    
    27   11   12 1    
    28   12   13 1    
    29   12   43 1    
    30   12   66 1    
    31   13   44 1    
    32   13   67 1    
    33   14   68 1    
    34   15   69 1    
    35   16   70 1    
    36   17   18 1    
    37   17   71 1    
    38   17   72 1    
    39   18   73 1    
    40   19   74 1    
    41   20   21 1    
    42   21   22 1    
    43   21   29 1    
    44   21   75 1    
    45   22   23 1    
    46   22   45 1    
    47   22   47 1    
    48   23   24 1    
    49   23   28 1    
    50   23   76 1    
    51   24   25 1    
    52   24   30 1    
    53   24   48 1    
    54   25   26 1    
    55   25   31 1    
    56   25   77 1    
    57   26   27 1    
    58   26   34 1    
    59   26   49 1    
    60   27   28 1    
    61   27   78 1    
    62   27   79 1    
    63   28   80 1    
    64   28   81 1    
    65   29   30 1    
    66   29   82 1    
    67   29   83 1    
    68   30   84 1    
    69   30   85 1    
    70   31   32 1    
    71   31   50 1    
    72   31   86 1    
    73   32   33 2    
    74   32   87 1    
    75   33   34 1    
    76   33   42 1    
    77   34   35 1    
    78   34   52 1    
    79   35   36 1    
    80   35   88 1    
    81   35   89 1    
    82   36   37 1    
    83   36   53 1    
    84   36   90 1    
    85   37   38 1    
    86   37   42 1    
    87   37   54 1    
    88   38   39 1    
    89   38   91 1    
    90   38   92 1    
    91   39   40 1    
    92   39   93 1    
    93   39   94 1    
    94   40   41 1    
    95   40   56 1    
    96   40   57 1    
    97   41   42 1    
    98   41   95 1    
    99   41   96 1    
   100   42   97 1    
   101   43   98 1    
   102   43   99 1    
   103   43  100 1    
   104   44  101 1    
   105   45   46 1    
   106   45  102 1    
   107   45  103 1    
   108   46  104 1    
   109   47  105 1    
   110   47  106 1    
   111   47  107 1    
   112   48  108 1    
   113   48  109 1    
   114   48  110 1    
   115   49  111 1    
   116   49  112 1    
   117   49  113 1    
   118   50   51 1    
   119   51  114 1    
   120   51  115 1    
   121   51  116 1    
   122   52  117 1    
   123   52  118 1    
   124   52  119 1    
   125   53  120 1    
   126   54   55 1    
   127   54  121 1    
   128   54  122 1    
   129   55  123 1    
   130   56  124 1    
   131   56  125 1    
   132   56  126 1    
   133   57  127 1    
   134   57  128 1    
   135   57  129 1    
@<TRIPOS>SUBSTRUCTURE
     1 ****        1 TEMP              0 ****  ****    0 ROOT 
@<TRIPOS>NORMAL
@<TRIPOS>FF_PBC
FORCE_FIELD_SETUP_FEATURE Force Field Setup information
v1.0  0 0.000000 0.000000 0.000000 0.000000 0.000000 0.000000 NONE 0 0 0 0 1 0 0 0 0 0 0 0 0
