@<TRIPOS>MOLECULE
MOL002144
   30    31     1     1     0
SMALL
GASTEIGER


@<TRIPOS>ATOM
      1 C          -1.218937    1.346967    0.477217 C.3       1 <1>        -0.021791 
      2 C          -2.263874    1.984653    1.441994 C.3       1 <1>        -0.030549 
      3 C          -3.331179    1.035566    1.951407 C.2       1 <1>        -0.082969 
      4 C          -3.128921   -0.285772    2.032344 C.2       1 <1>        -0.052649 
      5 C          -1.838896   -0.809086    1.572325 C.2       1 <1>         0.051011 
      6 C          -0.980494   -0.082052    0.874458 C.2       1 <1>         0.009852 
      7 C          -1.141208   -2.084960    1.680487 C.2       1 <1>         0.296956 
      8 O           0.063859   -2.132056    1.111409 O.3       1 <1>        -0.266884 
      9 C           0.265338   -0.838759    0.493360 C.3       1 <1>         0.259367 
     10 O          -1.621586   -3.044291    2.259306 O.2       1 <1>        -0.259119 
     11 C           0.305759   -0.967128   -1.012830 C.2       1 <1>         0.196781 
     12 O           1.439229   -0.223095    1.041390 O.3       1 <1>        -0.355165 
     13 C           1.249059   -0.080191   -1.786733 C.3       1 <1>         0.011346 
     14 C           2.669235   -0.701552   -1.859623 C.3       1 <1>        -0.049029 
     15 C           3.630808    0.200446   -2.676190 C.3       1 <1>        -0.064890 
     16 O          -0.414311   -1.764354   -1.594530 O.2       1 <1>        -0.291321 
     17 H          -0.281898    1.926851    0.496448 H         1 <1>         0.031505 
     18 H          -1.605847    1.336162   -0.553992 H         1 <1>         0.031505 
     19 H          -1.742883    2.355014    2.339749 H         1 <1>         0.031048 
     20 H          -2.733544    2.848709    0.943407 H         1 <1>         0.031048 
     21 H          -4.285826    1.446751    2.283907 H         1 <1>         0.057233 
     22 H          -3.882862   -0.967988    2.426241 H         1 <1>         0.062217 
     23 H           1.406237   -0.198829    1.991792 H         1 <1>         0.213520 
     24 H           0.852503    0.051056   -2.806465 H         1 <1>         0.034341 
     25 H           1.299751    0.912550   -1.314105 H         1 <1>         0.034341 
     26 H           3.077203   -0.837261   -0.844311 H         1 <1>         0.026665 
     27 H           2.606921   -1.693787   -2.337597 H         1 <1>         0.026665 
     28 H           4.632970   -0.254656   -2.721676 H         1 <1>         0.022988 
     29 H           3.257243    0.328695   -3.704125 H         1 <1>         0.022988 
     30 H           3.716347    1.192197   -2.205059 H         1 <1>         0.022988 
@<TRIPOS>BOND
     1    1    2 1    
     2    1    6 1    
     3    1   17 1    
     4    1   18 1    
     5    2    3 1    
     6    2   19 1    
     7    2   20 1    
     8    3    4 2    
     9    3   21 1    
    10    4    5 1    
    11    4   22 1    
    12    5    6 2    
    13    5    7 1    
    14    6    9 1    
    15    7    8 1    
    16    7   10 2    
    17    8    9 1    
    18    9   11 1    
    19    9   12 1    
    20   11   13 1    
    21   11   16 2    
    22   12   23 1    
    23   13   14 1    
    24   13   24 1    
    25   13   25 1    
    26   14   15 1    
    27   14   26 1    
    28   14   27 1    
    29   15   28 1    
    30   15   29 1    
    31   15   30 1    
@<TRIPOS>SUBSTRUCTURE
     1 ****        1 TEMP              0 ****  ****    0 ROOT 
@<TRIPOS>NORMAL
@<TRIPOS>FF_PBC
FORCE_FIELD_SETUP_FEATURE Force Field Setup information
v1.0  0 0.000000 0.000000 0.000000 0.000000 0.000000 0.000000 NONE 0 0 0 0 1 0 0 0 0 0 0 0 0
