@<TRIPOS>MOLECULE
MOL002250
   69    72     1     1     0
SMALL
GASTEIGER


@<TRIPOS>ATOM
      1 C          -1.517773    3.114163    3.499473 C.ar      1 <1>         0.132457 
      2 C          -1.226167    4.409878    2.836689 C.ar      1 <1>         0.105520 
      3 C          -0.806815    4.414483    1.535174 C.ar      1 <1>        -0.016369 
      4 C          -0.635041    3.143667    0.787166 C.ar      1 <1>         0.051495 
      5 C          -0.884552    1.967437    1.403379 C.ar      1 <1>        -0.016369 
      6 C          -1.339589    1.943880    2.814540 C.ar      1 <1>         0.105520 
      7 C          -0.174386    3.208000   -0.651740 C.2       1 <1>         0.294052 
      8 O           0.075546    2.090972   -1.362425 O.3       1 <1>        -0.308753 
      9 O          -0.026933    4.315803   -1.148062 O.2       1 <1>        -0.259223 
     10 C           0.577146    2.375928   -2.689345 C.3       1 <1>         0.086172 
     11 C           0.997364    1.144973   -3.543014 C.3       1 <1>         0.113902 
     12 C          -0.153864    0.237947   -4.073291 C.3       1 <1>         0.112789 
     13 C          -0.562405   -0.899221   -3.089298 C.3       1 <1>         0.127164 
     14 C           0.740724   -1.598827   -2.604342 C.3       1 <1>         0.135486 
     15 C           1.657900   -0.536039   -1.948402 C.3       1 <1>         0.196875 
     16 O           2.077501    0.413424   -2.939029 O.3       1 <1>        -0.340027 
     17 O          -1.360441   -0.335583   -2.032572 O.3       1 <1>        -0.302651 
     18 C          -1.963444   -1.124777   -1.114802 C.2       1 <1>         0.294389 
     19 C          -1.937119   -2.630050   -0.864212 C.ar      1 <1>         0.051505 
     20 O          -2.639372   -0.480198   -0.334064 O.2       1 <1>        -0.259212 
     21 C          -2.265997   -3.051585    0.527224 C.ar      1 <1>        -0.016369 
     22 C          -2.281840   -4.344603    0.907132 C.ar      1 <1>         0.105520 
     23 C          -1.930994   -5.410467   -0.064130 C.ar      1 <1>         0.132457 
     24 C          -1.624732   -5.074002   -1.338267 C.ar      1 <1>         0.105520 
     25 C          -1.663958   -3.653787   -1.767686 C.ar      1 <1>        -0.016369 
     26 O          -2.625903   -4.672020    2.220192 O.3       1 <1>        -0.357199 
     27 O          -1.913482   -6.743871    0.354285 O.3       1 <1>        -0.355395 
     28 O          -1.264435   -6.082552   -2.237241 O.3       1 <1>        -0.357199 
     29 O          -1.574024    0.713594    3.436465 O.3       1 <1>        -0.357199 
     30 O          -1.384873    5.598292    3.561966 O.3       1 <1>        -0.357199 
     31 O          -1.968439    3.080651    4.821022 O.3       1 <1>        -0.355395 
     32 O           2.903829   -1.125417   -1.524988 O.3       1 <1>        -0.278318 
     33 C           3.630863   -0.277337   -0.788238 C.2       1 <1>         0.296291 
     34 O           4.795942   -0.064171   -1.081089 O.2       1 <1>        -0.259141 
     35 C           3.029399    0.398247    0.424758 C.ar      1 <1>         0.051575 
     36 C           3.262802    1.836570    0.699607 C.ar      1 <1>        -0.016368 
     37 C           2.709578    2.422729    1.790114 C.ar      1 <1>         0.105520 
     38 C           1.888912    1.619533    2.735611 C.ar      1 <1>         0.132457 
     39 C           1.670637    0.292421    2.481679 C.ar      1 <1>         0.105520 
     40 C           2.259795   -0.333555    1.276817 C.ar      1 <1>        -0.016368 
     41 O           0.900270   -0.479330    3.351680 O.3       1 <1>        -0.357199 
     42 O           1.351984    2.235555    3.871561 O.3       1 <1>        -0.355395 
     43 O           2.917664    3.783845    2.017610 O.3       1 <1>        -0.357199 
     44 O           1.377535   -2.294438   -3.694811 O.3       1 <1>        -0.384062 
     45 O           0.319170   -0.341016   -5.312787 O.3       1 <1>        -0.386460 
     46 H          -0.590178    5.351235    1.034540 H         1 <1>         0.065181 
     47 H          -0.750959    1.031080    0.872012 H         1 <1>         0.065181 
     48 H          -0.165209    2.958054   -3.264030 H         1 <1>         0.059272 
     49 H           1.493971    2.984006   -2.575867 H         1 <1>         0.059272 
     50 H           1.462268    1.580998   -4.446062 H         1 <1>         0.064695 
     51 H          -1.030619    0.873217   -4.294446 H         1 <1>         0.064700 
     52 H          -1.206503   -1.537441   -3.708297 H         1 <1>         0.065671 
     53 H           0.543614   -2.350488   -1.827435 H         1 <1>         0.067136 
     54 H           1.086504   -0.075439   -1.126300 H         1 <1>         0.094270 
     55 H          -2.511765   -2.310988    1.280100 H         1 <1>         0.065181 
     56 H          -1.470813   -3.477494   -2.810563 H         1 <1>         0.065181 
     57 H          -2.631434   -5.615887    2.351277 H         1 <1>         0.217423 
     58 H          -1.668284   -7.340992   -0.347602 H         1 <1>         0.217501 
     59 H          -0.710815   -5.767642   -2.944763 H         1 <1>         0.217423 
     60 H          -1.966294    0.826489    4.299228 H         1 <1>         0.217423 
     61 H          -1.218010    6.395389    3.069180 H         1 <1>         0.217423 
     62 H          -2.140243    3.961882    5.142011 H         1 <1>         0.217501 
     63 H           3.873614    2.426496    0.025013 H         1 <1>         0.065181 
     64 H           2.073985   -1.386383    1.088945 H         1 <1>         0.065181 
     65 H          -0.032095   -0.352177    3.195053 H         1 <1>         0.217423 
     66 H           0.979776    1.614227    4.491842 H         1 <1>         0.217501 
     67 H           2.510984    4.065997    2.831328 H         1 <1>         0.217423 
     68 H           1.652689   -1.690912   -4.380972 H         1 <1>         0.210111 
     69 H          -0.342565   -0.818675   -5.805699 H         1 <1>         0.210004 
@<TRIPOS>BOND
     1    1    2 1    
     2    1    6 2    
     3    1   31 1    
     4    2    3 2    
     5    2   30 1    
     6    3    4 1    
     7    3   46 1    
     8    4    5 2    
     9    4    7 1    
    10    5    6 1    
    11    5   47 1    
    12    6   29 1    
    13    7    8 1    
    14    7    9 2    
    15    8   10 1    
    16   10   11 1    
    17   10   48 1    
    18   10   49 1    
    19   11   12 1    
    20   11   16 1    
    21   11   50 1    
    22   12   13 1    
    23   12   45 1    
    24   12   51 1    
    25   13   14 1    
    26   13   17 1    
    27   13   52 1    
    28   14   15 1    
    29   14   44 1    
    30   14   53 1    
    31   15   16 1    
    32   15   32 1    
    33   15   54 1    
    34   17   18 1    
    35   18   19 1    
    36   18   20 2    
    37   19   21 1    
    38   19   25 2    
    39   21   22 2    
    40   21   55 1    
    41   22   23 1    
    42   22   26 1    
    43   23   24 2    
    44   23   27 1    
    45   24   25 1    
    46   24   28 1    
    47   25   56 1    
    48   26   57 1    
    49   27   58 1    
    50   28   59 1    
    51   29   60 1    
    52   30   61 1    
    53   31   62 1    
    54   32   33 1    
    55   33   34 2    
    56   33   35 1    
    57   35   36 1    
    58   35   40 2    
    59   36   37 2    
    60   36   63 1    
    61   37   38 1    
    62   37   43 1    
    63   38   39 2    
    64   38   42 1    
    65   39   40 1    
    66   39   41 1    
    67   40   64 1    
    68   41   65 1    
    69   42   66 1    
    70   43   67 1    
    71   44   68 1    
    72   45   69 1    
@<TRIPOS>SUBSTRUCTURE
     1 ****        1 TEMP              0 ****  ****    0 ROOT 
@<TRIPOS>NORMAL
@<TRIPOS>FF_PBC
FORCE_FIELD_SETUP_FEATURE Force Field Setup information
v1.0  0 0.000000 0.000000 0.000000 0.000000 0.000000 0.000000 NONE 0 0 0 0 1 0 0 0 0 0 0 0 0
