@<TRIPOS>MOLECULE
MOL005368
   74    73     1     1     0
SMALL
GASTEIGER


@<TRIPOS>ATOM
      1 O           6.934191   12.357801   -0.059729 O.3       1 <1>        -0.318522 
      2 O           7.587233   11.582490    1.890137 O.2       1 <1>        -0.264985 
      3 C           0.159137   -0.811680   -0.147240 C.3       1 <1>        -0.053057 
      4 C          -1.259999   -1.398162    0.087557 C.3       1 <1>        -0.053057 
      5 C           0.187353    0.715871    0.133513 C.3       1 <1>        -0.053057 
      6 C          -1.293068   -2.931925   -0.156151 C.3       1 <1>        -0.053057 
      7 C           1.598318    1.317474   -0.111808 C.3       1 <1>        -0.053057 
      8 C          -2.720379   -3.504314    0.063724 C.3       1 <1>        -0.053057 
      9 C           1.621336    2.838246    0.204507 C.3       1 <1>        -0.053057 
     10 C          -2.757832   -5.042828   -0.147224 C.3       1 <1>        -0.053057 
     11 C           3.025246    3.453489   -0.047191 C.3       1 <1>        -0.053057 
     12 C          -4.192691   -5.602616    0.055527 C.3       1 <1>        -0.053057 
     13 C           3.045764    4.967099    0.302074 C.3       1 <1>        -0.053057 
     14 C          -4.235201   -7.143963   -0.131861 C.3       1 <1>        -0.053057 
     15 C           4.444035    5.592908    0.044664 C.3       1 <1>        -0.053057 
     16 C          -5.675826   -7.694017    0.056403 C.3       1 <1>        -0.053057 
     17 C           4.464353    7.099749    0.421811 C.3       1 <1>        -0.053045 
     18 C          -5.721413   -9.237259   -0.113444 C.3       1 <1>        -0.053065 
     19 C           5.856093    7.735268    0.153132 C.3       1 <1>        -0.052596 
     20 C          -7.165266   -9.782763    0.062157 C.3       1 <1>        -0.053306 
     21 C           5.876915    9.235987    0.554137 C.3       1 <1>        -0.044055 
     22 C          -7.210569  -11.326927   -0.097495 C.3       1 <1>        -0.055911 
     23 C           7.267649    9.876954    0.293033 C.3       1 <1>         0.033189 
     24 C          -8.653917  -11.869336    0.070278 C.3       1 <1>        -0.065276 
     25 C           7.274991   11.326489    0.738937 C.2       1 <1>         0.261905 
     26 C           6.694219   12.087711   -1.454589 C.3       1 <1>         0.045865 
     27 H           0.878310   -1.316999    0.518187 H         1 <1>         0.026528 
     28 H           0.463493   -0.998438   -1.190246 H         1 <1>         0.026528 
     29 H          -1.973288   -0.905046   -0.593287 H         1 <1>         0.026528 
     30 H          -1.572639   -1.190229    1.124135 H         1 <1>         0.026528 
     31 H          -0.107553    0.896331    1.180380 H         1 <1>         0.026528 
     32 H          -0.541313    1.220810   -0.521809 H         1 <1>         0.026528 
     33 H          -0.590829   -3.425352    0.535821 H         1 <1>         0.026528 
     34 H          -0.969105   -3.145994   -1.187981 H         1 <1>         0.026528 
     35 H           1.885661    1.157172   -1.164016 H         1 <1>         0.026528 
     36 H           2.331913    0.801434    0.529253 H         1 <1>         0.026528 
     37 H          -3.416966   -3.022415   -0.642052 H         1 <1>         0.026528 
     38 H          -3.052375   -3.271564    1.088992 H         1 <1>         0.026528 
     39 H           1.341018    2.992522    1.259564 H         1 <1>         0.026528 
     40 H           0.880240    3.353798   -0.428284 H         1 <1>         0.026528 
     41 H          -2.072679   -5.525157    0.569317 H         1 <1>         0.026528 
     42 H          -2.414272   -5.280747   -1.167453 H         1 <1>         0.026528 
     43 H           3.770521    2.927410    0.571801 H         1 <1>         0.026528 
     44 H           3.298416    3.317749   -1.106613 H         1 <1>         0.026528 
     45 H          -4.873173   -5.128425   -0.670898 H         1 <1>         0.026528 
     46 H          -4.541906   -5.351082    1.070557 H         1 <1>         0.026528 
     47 H           2.294092    5.492621   -0.309709 H         1 <1>         0.026528 
     48 H           2.778810    5.097658    1.363813 H         1 <1>         0.026528 
     49 H          -3.563942   -7.618511    0.602763 H         1 <1>         0.026528 
     50 H          -3.876755   -7.399141   -1.142780 H         1 <1>         0.026528 
     51 H           5.199007    5.057865    0.644066 H         1 <1>         0.026528 
     52 H           4.703841    5.478054   -1.020595 H         1 <1>         0.026528 
     53 H          -6.343339   -7.225991   -0.685804 H         1 <1>         0.026528 
     54 H          -6.038895   -7.428666    1.062977 H         1 <1>         0.026528 
     55 H           3.700624    7.633333   -0.167647 H         1 <1>         0.026529 
     56 H           4.214217    7.209341    1.490029 H         1 <1>         0.026529 
     57 H          -5.061175   -9.705361    0.635111 H         1 <1>         0.026528 
     58 H          -5.350579   -9.505079   -1.116474 H         1 <1>         0.026528 
     59 H           6.622111    7.192205    0.730947 H         1 <1>         0.026540 
     60 H           6.098467    7.639296   -0.918134 H         1 <1>         0.026540 
     61 H          -7.823940   -9.319900   -0.691074 H         1 <1>         0.026520 
     62 H          -7.539862   -9.510015    1.062493 H         1 <1>         0.026520 
     63 H           5.099733    9.773272   -0.010947 H         1 <1>         0.027004 
     64 H           5.638768    9.329352    1.627036 H         1 <1>         0.027004 
     65 H          -6.559611  -11.795315    0.659549 H         1 <1>         0.026265 
     66 H          -6.834915  -11.606380   -1.096031 H         1 <1>         0.026265 
     67 H           8.014894    9.341423    0.900751 H         1 <1>         0.036606 
     68 H           7.565334    9.740450   -0.755413 H         1 <1>         0.036606 
     69 H          -9.045816  -11.617703    1.068127 H         1 <1>         0.022978 
     70 H          -9.319331  -11.433367   -0.691184 H         1 <1>         0.022978 
     71 H          -8.662790  -12.965007   -0.043221 H         1 <1>         0.022978 
     72 H           6.395328   13.044018   -1.908575 H         1 <1>         0.052962 
     73 H           7.609932   11.752878   -1.965916 H         1 <1>         0.052962 
     74 H           5.877893   11.371212   -1.625291 H         1 <1>         0.052962 
@<TRIPOS>BOND
     1   25    1 1    
     2    1   26 1    
     3   25    2 2    
     4    3    4 1    
     5    5    3 1    
     6    3   27 1    
     7    3   28 1    
     8    4    6 1    
     9    4   29 1    
    10    4   30 1    
    11    7    5 1    
    12    5   31 1    
    13    5   32 1    
    14    6    8 1    
    15    6   33 1    
    16    6   34 1    
    17    9    7 1    
    18    7   35 1    
    19    7   36 1    
    20    8   10 1    
    21    8   37 1    
    22    8   38 1    
    23   11    9 1    
    24    9   39 1    
    25    9   40 1    
    26   10   12 1    
    27   10   41 1    
    28   10   42 1    
    29   13   11 1    
    30   11   43 1    
    31   11   44 1    
    32   12   14 1    
    33   12   45 1    
    34   12   46 1    
    35   15   13 1    
    36   13   47 1    
    37   13   48 1    
    38   14   16 1    
    39   14   49 1    
    40   14   50 1    
    41   17   15 1    
    42   15   51 1    
    43   15   52 1    
    44   16   18 1    
    45   16   53 1    
    46   16   54 1    
    47   19   17 1    
    48   17   55 1    
    49   17   56 1    
    50   18   20 1    
    51   18   57 1    
    52   18   58 1    
    53   21   19 1    
    54   19   59 1    
    55   19   60 1    
    56   20   22 1    
    57   20   61 1    
    58   20   62 1    
    59   23   21 1    
    60   21   63 1    
    61   21   64 1    
    62   22   24 1    
    63   22   65 1    
    64   22   66 1    
    65   23   25 1    
    66   23   67 1    
    67   23   68 1    
    68   24   69 1    
    69   24   70 1    
    70   24   71 1    
    71   26   72 1    
    72   26   73 1    
    73   26   74 1    
@<TRIPOS>SUBSTRUCTURE
     1 ****        3 TEMP              0 ****  ****    0 ROOT 
@<TRIPOS>NORMAL
@<TRIPOS>FF_PBC
FORCE_FIELD_SETUP_FEATURE Force Field Setup information
v1.0  0 0.000000 0.000000 0.000000 0.000000 0.000000 0.000000 NONE 0 0 0 0 1 0 0 0 0 0 0 0 0
