@<TRIPOS>MOLECULE
MOL002287
   24    24     1     1     0
SMALL
GASTEIGER


@<TRIPOS>ATOM
      1 C          -0.813953    0.232306   -0.018200 C.ar      1 <1>        -0.046802 
      2 C          -0.823066   -1.306300    0.043453 C.ar      1 <1>        -0.056132 
      3 C          -2.107877   -2.044200    0.053459 C.ar      1 <1>        -0.031682 
      4 C          -3.432922   -1.299174    0.003645 C.ar      1 <1>         0.072598 
      5 C          -3.432278    0.182953   -0.055995 C.ar      1 <1>        -0.031682 
      6 C          -2.111493    0.949175   -0.066698 C.ar      1 <1>        -0.056132 
      7 O          -4.625760   -2.024143    0.014998 O.3       1 <1>        -0.359832 
      8 C           0.471952    1.073099   -0.032456 C.3       1 <1>        -0.021015 
      9 C           1.789838    0.256214    0.018675 C.3       1 <1>         0.009519 
     10 C           3.010193    1.145484    0.000845 C.2       1 <1>         0.130630 
     11 O           2.915297    2.361540   -0.038968 O.2       1 <1>        -0.297693 
     12 C           4.367793    0.492310    0.030889 C.3       1 <1>        -0.006054 
     13 H           0.099207   -1.872803    0.080314 H         1 <1>         0.062108 
     14 H          -2.111548   -3.127713    0.096704 H         1 <1>         0.064328 
     15 H          -4.366637    0.732004   -0.092420 H         1 <1>         0.064328 
     16 H          -2.126808    2.033044   -0.110469 H         1 <1>         0.062108 
     17 H          -5.402205   -1.477151   -0.013258 H         1 <1>         0.217313 
     18 H           0.436219    1.752160    0.834578 H         1 <1>         0.031719 
     19 H           0.462423    1.681426   -0.951142 H         1 <1>         0.031719 
     20 H           1.816897   -0.342181    0.942869 H         1 <1>         0.034460 
     21 H           1.842338   -0.413789   -0.853888 H         1 <1>         0.034460 
     22 H           4.297287   -0.603515    0.103080 H         1 <1>         0.030578 
     23 H           4.931277    0.867681    0.898008 H         1 <1>         0.030578 
     24 H           4.913622    0.751870   -0.888325 H         1 <1>         0.030578 
@<TRIPOS>BOND
     1    1    2 2    
     2    1    6 1    
     3    1    8 1    
     4    2    3 1    
     5    2   13 1    
     6    3    4 2    
     7    3   14 1    
     8    4    5 1    
     9    4    7 1    
    10    5    6 2    
    11    5   15 1    
    12    6   16 1    
    13    7   17 1    
    14    8    9 1    
    15    8   18 1    
    16    8   19 1    
    17    9   10 1    
    18    9   20 1    
    19    9   21 1    
    20   10   11 2    
    21   10   12 1    
    22   12   22 1    
    23   12   23 1    
    24   12   24 1    
@<TRIPOS>SUBSTRUCTURE
     1 ****        1 TEMP              0 ****  ****    0 ROOT 
@<TRIPOS>NORMAL
@<TRIPOS>FF_PBC
FORCE_FIELD_SETUP_FEATURE Force Field Setup information
v1.0  0 0.000000 0.000000 0.000000 0.000000 0.000000 0.000000 NONE 0 0 0 0 1 0 0 0 0 0 0 0 0
