@<TRIPOS>MOLECULE
MOL002191
   42    43     1     1     0
SMALL
GASTEIGER


@<TRIPOS>ATOM
      1 C           0.659483    1.687326   -1.581447 C.3       1 <1>        -0.044368 
      2 C           1.962791    0.899214   -1.291666 C.3       1 <1>        -0.046757 
      3 C           1.554942   -0.329643   -0.410949 C.3       1 <1>        -0.009247 
      4 C          -0.006386   -0.231214   -0.337096 C.3       1 <1>         0.075034 
      5 C          -0.664384   -0.873726    0.926508 C.3       1 <1>        -0.019534 
      6 C          -2.217675   -0.767599    1.007938 C.3       1 <1>        -0.029380 
      7 C          -2.792612    0.599223    1.320505 C.2       1 <1>        -0.076419 
      8 C          -2.600094    1.675481    0.543454 C.2       1 <1>        -0.084418 
      9 C          -1.752163    1.693974   -0.704598 C.3       1 <1>        -0.026472 
     10 C          -0.270911    1.311047   -0.404317 C.3       1 <1>         0.000438 
     11 O          -0.398854   -0.931574   -1.536937 O.3       1 <1>        -0.387731 
     12 C           3.757324   -1.575959   -0.823849 C.3       1 <1>        -0.062324 
     13 C           2.208090   -1.637601   -0.986519 C.3       1 <1>        -0.041264 
     14 C           1.703581   -2.960345   -0.345960 C.3       1 <1>        -0.062324 
     15 C           0.196255    2.117585    0.857407 C.3       1 <1>        -0.056651 
     16 C          -3.630087    0.693714    2.580320 C.3       1 <1>        -0.043786 
     17 H           0.834503    2.771387   -1.676842 H         1 <1>         0.027160 
     18 H           0.205739    1.334036   -2.523425 H         1 <1>         0.027160 
     19 H           2.411065    0.629529   -2.261758 H         1 <1>         0.026909 
     20 H           2.696551    1.527103   -0.759376 H         1 <1>         0.026909 
     21 H           1.938437   -0.210146    0.615142 H         1 <1>         0.033112 
     22 H          -0.436810   -1.945198    0.931986 H         1 <1>         0.029614 
     23 H          -0.229610   -0.461654    1.848570 H         1 <1>         0.029614 
     24 H          -2.531944   -1.459402    1.808234 H         1 <1>         0.031079 
     25 H          -2.703962   -1.134860    0.094198 H         1 <1>         0.031079 
     26 H          -3.071959    2.618757    0.824387 H         1 <1>         0.057172 
     27 H          -2.223807    1.081358   -1.483198 H         1 <1>         0.031357 
     28 H          -1.747615    2.727425   -1.088949 H         1 <1>         0.031357 
     29 H          -1.326760   -0.986913   -1.715296 H         1 <1>         0.210195 
     30 H           4.233055   -2.448707   -1.298053 H         1 <1>         0.023243 
     31 H           4.026203   -1.575127    0.243715 H         1 <1>         0.023243 
     32 H           4.187421   -0.675806   -1.286033 H         1 <1>         0.023243 
     33 H           1.983630   -1.708255   -2.065491 H         1 <1>         0.029903 
     34 H           0.664387   -3.167889   -0.639926 H         1 <1>         0.023243 
     35 H           2.304098   -3.814160   -0.696321 H         1 <1>         0.023243 
     36 H           1.783948   -2.913427    0.750544 H         1 <1>         0.023243 
     37 H           0.045519    3.192648    0.674450 H         1 <1>         0.023606 
     38 H           1.256833    1.981400    1.102361 H         1 <1>         0.023606 
     39 H          -0.373580    1.864768    1.761479 H         1 <1>         0.023606 
     40 H          -3.015234    0.409695    3.447782 H         1 <1>         0.027436 
     41 H          -4.027802    1.702955    2.765080 H         1 <1>         0.027436 
     42 H          -4.483051    0.002199    2.506644 H         1 <1>         0.027436 
@<TRIPOS>BOND
     1    1    2 1    
     2    1   10 1    
     3    1   17 1    
     4    1   18 1    
     5    2    3 1    
     6    2   19 1    
     7    2   20 1    
     8    3    4 1    
     9    3   13 1    
    10    3   21 1    
    11    4    5 1    
    12    4   10 1    
    13    4   11 1    
    14    5    6 1    
    15    5   22 1    
    16    5   23 1    
    17    6    7 1    
    18    6   24 1    
    19    6   25 1    
    20    7    8 2    
    21    7   16 1    
    22    8    9 1    
    23    8   26 1    
    24    9   10 1    
    25    9   27 1    
    26    9   28 1    
    27   10   15 1    
    28   11   29 1    
    29   13   12 1    
    30   12   30 1    
    31   12   31 1    
    32   12   32 1    
    33   13   14 1    
    34   13   33 1    
    35   14   34 1    
    36   14   35 1    
    37   14   36 1    
    38   15   37 1    
    39   15   38 1    
    40   15   39 1    
    41   16   40 1    
    42   16   41 1    
    43   16   42 1    
@<TRIPOS>SUBSTRUCTURE
     1 ****        1 TEMP              0 ****  ****    0 ROOT 
@<TRIPOS>NORMAL
@<TRIPOS>FF_PBC
FORCE_FIELD_SETUP_FEATURE Force Field Setup information
v1.0  0 0.000000 0.000000 0.000000 0.000000 0.000000 0.000000 NONE 0 0 0 0 1 0 0 0 0 0 0 0 0
