@<TRIPOS>MOLECULE
MOL001456
   21    20     1     1     0
SMALL
GASTEIGER


@<TRIPOS>ATOM
      1 O           0.622201   -0.101284   -1.770341 O.3       1 <1>        -0.377551 
      2 O           2.610241   -0.734567    0.063372 O.3       1 <1>        -0.329086 
      3 O           2.081254    1.187663    1.073639 O.2       1 <1>        -0.261937 
      4 O          -0.717713   -3.266510    0.682717 O.3       1 <1>        -0.331186 
      5 O          -2.321638    2.820284   -0.807900 O.3       1 <1>        -0.331186 
      6 O           0.773171   -2.543659   -0.776297 O.2       1 <1>        -0.265058 
      7 O          -1.980382    0.868624   -1.759530 O.2       1 <1>        -0.265058 
      8 C           0.424739    0.214048   -0.378334 C.3       1 <1>         0.168085 
      9 C          -0.478393   -0.843400    0.326651 C.3       1 <1>         0.071596 
     10 C          -0.229600    1.624721   -0.311207 C.3       1 <1>         0.071596 
     11 C           1.772661    0.270885    0.324293 C.2       1 <1>         0.292561 
     12 C          -0.088683   -2.275002    0.041109 C.2       1 <1>         0.262876 
     13 C          -1.567443    1.735935   -1.011637 C.2       1 <1>         0.262876 
     14 H          -0.474902   -0.660831    1.411032 H         1 <1>         0.039968 
     15 H          -1.515937   -0.762373   -0.020136 H         1 <1>         0.039968 
     16 H           0.447063    2.347846   -0.803388 H         1 <1>         0.039968 
     17 H          -0.352874    1.917354    0.747652 H         1 <1>         0.039968 
     18 H           1.084043   -0.928792   -1.880747 H         1 <1>         0.210878 
     19 H           3.443231   -0.631877    0.509863 H         1 <1>         0.220302 
     20 H          -1.393617   -2.980804    1.283534 H         1 <1>         0.220209 
     21 H          -1.945847    3.470318   -0.229185 H         1 <1>         0.220209 
@<TRIPOS>BOND
     1    8    1 1    
     2    1   18 1    
     3   11    2 1    
     4    2   19 1    
     5   11    3 2    
     6   12    4 1    
     7    4   20 1    
     8   13    5 1    
     9    5   21 1    
    10   12    6 2    
    11   13    7 2    
    12    8    9 1    
    13   10    8 1    
    14    8   11 1    
    15    9   12 1    
    16    9   14 1    
    17    9   15 1    
    18   10   13 1    
    19   10   16 1    
    20   10   17 1    
@<TRIPOS>SUBSTRUCTURE
     1 ****        1 TEMP              0 ****  ****    0 ROOT 
@<TRIPOS>NORMAL
@<TRIPOS>FF_PBC
FORCE_FIELD_SETUP_FEATURE Force Field Setup information
v1.0  0 0.000000 0.000000 0.000000 0.000000 0.000000 0.000000 NONE 0 0 0 0 1 0 0 0 0 0 0 0 0
