@<TRIPOS>MOLECULE
MOL000710
   25    24     1     1     0
SMALL
GASTEIGER


@<TRIPOS>ATOM
      1 C          -0.730667    0.558253   -0.000085 C.3       1 <1>        -0.052682 
      2 C           0.615101   -0.217687    0.000133 C.3       1 <1>        -0.053055 
      3 C          -0.496739    2.093909    0.000111 C.3       1 <1>        -0.046641 
      4 C           0.385251   -1.753953   -0.000082 C.3       1 <1>        -0.053306 
      5 C          -1.839659    2.872997   -0.000143 C.3       1 <1>         0.002777 
      6 C           1.732572   -2.526753    0.000135 C.3       1 <1>        -0.055911 
      7 C          -1.627806    4.364948    0.000021 C.2       1 <1>         0.120308 
      8 C           1.504370   -4.060842   -0.000092 C.3       1 <1>        -0.065276 
      9 O          -2.591333    5.113658    0.000174 O.2       1 <1>        -0.301035 
     10 H          -1.312630    0.278091   -0.893589 H         1 <1>         0.026539 
     11 H          -1.313032    0.277919    0.893103 H         1 <1>         0.026539 
     12 H           1.196921    0.062619    0.893666 H         1 <1>         0.026528 
     13 H           1.197326    0.062808   -0.893076 H         1 <1>         0.026528 
     14 H           0.083904    2.375280    0.894359 H         1 <1>         0.026918 
     15 H           0.084332    2.375436   -0.893814 H         1 <1>         0.026918 
     16 H          -0.195670   -2.036074   -0.893630 H         1 <1>         0.026520 
     17 H          -0.196074   -2.036270    0.893142 H         1 <1>         0.026520 
     18 H          -2.426150    2.606982   -0.893888 H         1 <1>         0.033871 
     19 H          -2.426554    2.606837    0.893294 H         1 <1>         0.033871 
     20 H           2.316742   -2.250209    0.893775 H         1 <1>         0.026265 
     21 H           2.317146   -2.250011   -0.893181 H         1 <1>         0.026265 
     22 H          -0.628904    4.801163   -0.000005 H         1 <1>         0.102608 
     23 H           2.471813   -4.587700    0.000080 H         1 <1>         0.022978 
     24 H           0.940119   -4.365550   -0.895305 H         1 <1>         0.022978 
     25 H           0.939720   -4.365752    0.894796 H         1 <1>         0.022978 
@<TRIPOS>BOND
     1    1    2 1    
     2    1    3 1    
     3    1   10 1    
     4    1   11 1    
     5    2    4 1    
     6    2   12 1    
     7    2   13 1    
     8    3    5 1    
     9    3   14 1    
    10    3   15 1    
    11    4    6 1    
    12    4   16 1    
    13    4   17 1    
    14    5    7 1    
    15    5   18 1    
    16    5   19 1    
    17    6    8 1    
    18    6   20 1    
    19    6   21 1    
    20    7    9 2    
    21    7   22 1    
    22    8   23 1    
    23    8   24 1    
    24    8   25 1    
@<TRIPOS>SUBSTRUCTURE
     1 ****        1 TEMP              0 ****  ****    0 ROOT 
@<TRIPOS>NORMAL
@<TRIPOS>FF_PBC
FORCE_FIELD_SETUP_FEATURE Force Field Setup information
v1.0  0 0.000000 0.000000 0.000000 0.000000 0.000000 0.000000 NONE 0 0 0 0 1 0 0 0 0 0 0 0 0
