@<TRIPOS>MOLECULE
MOL003353
   31    33     1     1     0
SMALL
GASTEIGER


@<TRIPOS>ATOM
      1 O          -0.231768    2.768255   -0.172937 O.2       1 <1>        -0.286459 
      2 O          -2.780916    2.263089   -0.343599 O.3       1 <1>        -0.359105 
      3 O           2.250657    3.517560   -0.036764 O.3       1 <1>        -0.359031 
      4 O           5.581776   -0.078862    0.414935 O.3       1 <1>        -0.359741 
      5 C           0.740981   -1.365342    0.142453 C.3       1 <1>        -0.000811 
      6 C          -0.711865   -0.899548    0.003119 C.ar      1 <1>        -0.029502 
      7 C           1.814576   -0.273067    0.154097 C.ar      1 <1>        -0.027324 
      8 C          -1.070717    0.535575   -0.109594 C.ar      1 <1>         0.055501 
      9 C           1.471991    1.165616    0.044159 C.ar      1 <1>         0.055645 
     10 C           0.024304    1.577707   -0.086719 C.2       1 <1>         0.198609 
     11 C          -1.735908   -1.881214   -0.017279 C.ar      1 <1>        -0.054505 
     12 C          -2.439230    0.913036   -0.237518 C.ar      1 <1>         0.083904 
     13 C           3.174197   -0.659625    0.274634 C.ar      1 <1>        -0.027608 
     14 C          -3.159466   -1.489017   -0.150938 C.ar      1 <1>        -0.047713 
     15 C           2.521309    2.149274    0.063219 C.ar      1 <1>         0.086092 
     16 C          -3.493408   -0.132901   -0.257461 C.ar      1 <1>        -0.028305 
     17 C           4.256921    0.349350    0.294169 C.ar      1 <1>         0.075325 
     18 C           3.931461    1.715544    0.191277 C.ar      1 <1>        -0.001452 
     19 C          -4.266486   -2.548141   -0.173781 C.3       1 <1>        -0.039620 
     20 H           0.959764   -2.044339   -0.696330 H         1 <1>         0.036184 
     21 H           0.825137   -1.929285    1.084276 H         1 <1>         0.036184 
     22 H          -1.473670   -2.930711    0.065540 H         1 <1>         0.062322 
     23 H           3.437285   -1.708783    0.354905 H         1 <1>         0.064624 
     24 H          -4.535485    0.151567   -0.355731 H         1 <1>         0.064604 
     25 H           4.707483    2.472209    0.203943 H         1 <1>         0.066922 
     26 H          -3.865688   -3.554760    0.016910 H         1 <1>         0.027754 
     27 H          -4.752450   -2.540633   -1.160986 H         1 <1>         0.027754 
     28 H          -5.014957   -2.315462    0.598687 H         1 <1>         0.027754 
     29 H          -3.714579    2.423869   -0.413573 H         1 <1>         0.217340 
     30 H           1.324093    3.727099   -0.114708 H         1 <1>         0.217341 
     31 H           6.224256    0.621842    0.421997 H         1 <1>         0.217315 
@<TRIPOS>BOND
     1   10    1 2    
     2   12    2 1    
     3    2   29 1    
     4   15    3 1    
     5    3   30 1    
     6   17    4 1    
     7    4   31 1    
     8    5    6 1    
     9    7    5 1    
    10    5   20 1    
    11    5   21 1    
    12    6    8 1    
    13    6   11 2    
    14    7    9 1    
    15   13    7 2    
    16   10    8 1    
    17    8   12 2    
    18    9   10 1    
    19    9   15 2    
    20   11   14 1    
    21   11   22 1    
    22   12   16 1    
    23   13   17 1    
    24   13   23 1    
    25   14   16 2    
    26   14   19 1    
    27   15   18 1    
    28   16   24 1    
    29   17   18 2    
    30   18   25 1    
    31   19   26 1    
    32   19   27 1    
    33   19   28 1    
@<TRIPOS>SUBSTRUCTURE
     1 ****        5 TEMP              0 ****  ****    0 ROOT 
@<TRIPOS>NORMAL
@<TRIPOS>FF_PBC
FORCE_FIELD_SETUP_FEATURE Force Field Setup information
v1.0  0 0.000000 0.000000 0.000000 0.000000 0.000000 0.000000 NONE 0 0 0 0 1 0 0 0 0 0 0 0 0
