@<TRIPOS>MOLECULE
MOL005012
   41    44     1     1     0
SMALL
GASTEIGER


@<TRIPOS>ATOM
      1 O           3.858557    1.172290   -0.235524 O.3       1 <1>        -0.336456 
      2 O          -0.947339    2.312930   -0.279186 O.3       1 <1>        -0.315268 
      3 O           0.619448   -2.395667   -0.104236 O.3       1 <1>        -0.358681 
      4 O          -1.991032   -1.611327   -0.125796 O.2       1 <1>        -0.286389 
      5 O          -8.268222   -0.616549    0.032694 O.3       1 <1>        -0.359832 
      6 C           4.508890   -0.082242   -0.558590 C.3       1 <1>         0.089865 
      7 C           3.558270   -1.242755   -0.133835 C.3       1 <1>         0.007950 
      8 C           2.239242   -0.500086   -0.172909 C.ar      1 <1>         0.015915 
      9 C           2.513759    0.833555   -0.228805 C.ar      1 <1>         0.085168 
     10 C           0.855669   -1.019292   -0.154516 C.ar      1 <1>         0.091599 
     11 C          -0.187934   -0.067847   -0.186807 C.ar      1 <1>         0.082785 
     12 C           5.868275   -0.185199    0.095585 C.2       1 <1>        -0.050557 
     13 C           1.428218    1.837552   -0.270182 C.ar      1 <1>         0.000000 
     14 C           0.099432    1.385659   -0.246522 C.ar      1 <1>         0.098085 
     15 C          -1.645907   -0.440753   -0.161896 C.2       1 <1>         0.200581 
     16 C          -2.619411    0.657282   -0.179319 C.2       1 <1>         0.052653 
     17 C           6.015441    0.492353    1.438996 C.3       1 <1>        -0.041596 
     18 C          -2.238363    1.940829   -0.237302 C.2       1 <1>         0.058255 
     19 C           6.879088   -0.845048   -0.486347 C.2       1 <1>        -0.097260 
     20 C          -4.092150    0.323041   -0.126035 C.ar      1 <1>        -0.012137 
     21 C          -4.811972    0.103230   -1.305986 C.ar      1 <1>        -0.051421 
     22 C          -4.774140    0.228485    1.186042 C.ar      1 <1>        -0.051421 
     23 C          -6.257285   -0.221009   -1.238503 C.ar      1 <1>        -0.031363 
     24 C          -6.138524   -0.078239    1.247321 C.ar      1 <1>        -0.031363 
     25 C          -6.906448   -0.310338   -0.003126 C.ar      1 <1>         0.072617 
     26 H           4.602740   -0.097913   -1.658770 H         1 <1>         0.065126 
     27 H           3.738842   -1.575261    0.899592 H         1 <1>         0.034328 
     28 H           3.582851   -2.104346   -0.819055 H         1 <1>         0.034328 
     29 H           1.656283    2.896030   -0.316143 H         1 <1>         0.066964 
     30 H           5.932697    1.581748    1.308539 H         1 <1>         0.027509 
     31 H           5.216496    0.156789    2.116732 H         1 <1>         0.027509 
     32 H           6.983497    0.274668    1.915073 H         1 <1>         0.027509 
     33 H          -2.989872    2.730602   -0.251402 H         1 <1>         0.089749 
     34 H           7.858784   -0.918096   -0.015159 H         1 <1>         0.053511 
     35 H           6.752813   -1.332336   -1.452717 H         1 <1>         0.053511 
     36 H          -0.305595   -2.625760   -0.097309 H         1 <1>         0.217354 
     37 H          -4.315904    0.169398   -2.268485 H         1 <1>         0.062443 
     38 H          -4.211196    0.397315    2.098629 H         1 <1>         0.062443 
     39 H          -6.818229   -0.390465   -2.151110 H         1 <1>         0.064338 
     40 H          -6.630826   -0.145273    2.211679 H         1 <1>         0.064338 
     41 H          -8.618443   -0.688353    0.912888 H         1 <1>         0.217313 
@<TRIPOS>BOND
     1    1    6 1    
     2    9    1 1    
     3    2   14 1    
     4   18    2 1    
     5   10    3 1    
     6    3   36 1    
     7   15    4 2    
     8   25    5 1    
     9    5   41 1    
    10    7    6 1    
    11    6   12 1    
    12    6   26 1    
    13    8    7 1    
    14    7   27 1    
    15    7   28 1    
    16    8    9 2    
    17   10    8 1    
    18   13    9 1    
    19   11   10 2    
    20   11   14 1    
    21   15   11 1    
    22   12   17 1    
    23   12   19 2    
    24   14   13 2    
    25   13   29 1    
    26   16   15 1    
    27   16   18 2    
    28   20   16 1    
    29   17   30 1    
    30   17   31 1    
    31   17   32 1    
    32   18   33 1    
    33   19   34 1    
    34   19   35 1    
    35   21   20 2    
    36   20   22 1    
    37   23   21 1    
    38   21   37 1    
    39   22   24 2    
    40   22   38 1    
    41   23   25 2    
    42   23   39 1    
    43   24   25 1    
    44   24   40 1    
@<TRIPOS>SUBSTRUCTURE
     1 ****        1 TEMP              0 ****  ****    0 ROOT 
@<TRIPOS>NORMAL
@<TRIPOS>FF_PBC
FORCE_FIELD_SETUP_FEATURE Force Field Setup information
v1.0  0 0.000000 0.000000 0.000000 0.000000 0.000000 0.000000 NONE 0 0 0 0 1 0 0 0 0 0 0 0 0
