@<TRIPOS>MOLECULE
MOL001099
   18    18     1     1     0
SMALL
GASTEIGER


@<TRIPOS>ATOM
      1 C          -1.227466    0.751509   -0.000032 C.ar      1 <1>        -0.058589 
      2 C          -1.242674   -0.730680    0.000023 C.ar      1 <1>        -0.058589 
      3 C          -0.031255   -1.452319    0.000051 C.ar      1 <1>        -0.050429 
      4 C           1.254074   -0.712453    0.000056 C.ar      1 <1>        -0.058589 
      5 C           1.267528    0.691841    0.000004 C.ar      1 <1>        -0.058589 
      6 C          -0.006921    1.451974   -0.000039 C.ar      1 <1>        -0.050429 
      7 C          -0.010096    2.983740   -0.000110 C.3       1 <1>        -0.039709 
      8 C          -0.010321   -2.984031    0.000091 C.3       1 <1>        -0.039709 
      9 H          -2.165814    1.296280   -0.000058 H         1 <1>         0.062028 
     10 H          -2.194057   -1.251835    0.000026 H         1 <1>         0.062028 
     11 H           2.189814   -1.261987    0.000088 H         1 <1>         0.062028 
     12 H           2.215708    1.219228    0.000007 H         1 <1>         0.062028 
     13 H           1.012609    3.389061    0.000098 H         1 <1>         0.027753 
     14 H          -0.534539    3.346161   -0.896979 H         1 <1>         0.027753 
     15 H          -0.534934    3.346258    0.896493 H         1 <1>         0.027753 
     16 H          -1.024929   -3.409690    0.000281 H         1 <1>         0.027753 
     17 H           0.521527   -3.336544   -0.896206 H         1 <1>         0.027753 
     18 H           0.521847   -3.336514    0.896205 H         1 <1>         0.027753 
@<TRIPOS>BOND
     1    1    2 1    
     2    1    6 2    
     3    1    9 1    
     4    2    3 2    
     5    2   10 1    
     6    3    4 1    
     7    3    8 1    
     8    4    5 2    
     9    4   11 1    
    10    5    6 1    
    11    5   12 1    
    12    6    7 1    
    13    7   13 1    
    14    7   14 1    
    15    7   15 1    
    16    8   16 1    
    17    8   17 1    
    18    8   18 1    
@<TRIPOS>SUBSTRUCTURE
     1 ****        1 TEMP              0 ****  ****    0 ROOT 
@<TRIPOS>NORMAL
@<TRIPOS>FF_PBC
FORCE_FIELD_SETUP_FEATURE Force Field Setup information
v1.0  0 0.000000 0.000000 0.000000 0.000000 0.000000 0.000000 NONE 0 0 0 0 1 0 0 0 0 0 0 0 0
