@<TRIPOS>MOLECULE
MOL004956
   53    56     1     1     0
SMALL
GASTEIGER


@<TRIPOS>ATOM
      1 O          -3.668655    0.296686    0.417116 O.3       1 <1>        -0.340168 
      2 O          -3.221219   -1.973260    0.391994 O.3       1 <1>        -0.312551 
      3 O          -7.787062   -0.288653   -0.163578 O.3       1 <1>        -0.386401 
      4 O          -6.668464    2.356775   -0.355722 O.3       1 <1>        -0.386488 
      5 O          -5.806227   -2.507641   -0.715232 O.3       1 <1>        -0.384091 
      6 O          -2.487375    2.889118    0.358705 O.3       1 <1>        -0.392366 
      7 O           4.663143   -2.184523    0.054219 O.3       1 <1>        -0.315353 
      8 O           2.355581    1.106734    0.246822 O.2       1 <1>        -0.286478 
      9 O           8.844589    0.353889   -0.231213 O.3       1 <1>        -0.347829 
     10 C          -6.399193   -0.108099   -0.511614 C.3       1 <1>         0.114074 
     11 C          -5.920726    1.223324    0.127978 C.3       1 <1>         0.111896 
     12 C          -4.399890    1.422738   -0.104784 C.3       1 <1>         0.113017 
     13 C          -5.515863   -1.284078   -0.006100 C.3       1 <1>         0.134509 
     14 C          -4.018494   -0.946537   -0.220438 C.3       1 <1>         0.193642 
     15 C          -3.889207    2.696323    0.617362 C.3       1 <1>         0.073015 
     16 C          -1.839250   -1.789004    0.332734 C.ar      1 <1>         0.079499 
     17 C          -1.110537   -1.659218    1.515888 C.ar      1 <1>        -0.030993 
     18 C          -1.135920   -1.739482   -0.972652 C.ar      1 <1>        -0.030993 
     19 C           1.020960   -1.421524    0.243310 C.ar      1 <1>        -0.012138 
     20 C           0.358925   -1.470732    1.474815 C.ar      1 <1>        -0.051412 
     21 C           0.250968   -1.556139   -1.015495 C.ar      1 <1>        -0.051412 
     22 C           2.519443   -1.234045    0.179900 C.2       1 <1>         0.052566 
     23 C           3.074335    0.122734    0.175086 C.2       1 <1>         0.198092 
     24 C           4.572734    0.246191    0.073605 C.ar      1 <1>         0.052905 
     25 C           5.303653   -0.938743    0.016467 C.ar      1 <1>         0.095577 
     26 C           3.326073   -2.301172    0.123189 C.2       1 <1>         0.058253 
     27 C           5.259898    1.558333    0.032624 C.ar      1 <1>        -0.045973 
     28 C           6.778823   -0.875938   -0.087430 C.ar      1 <1>        -0.000475 
     29 C           7.447490    0.353208   -0.130210 C.ar      1 <1>         0.078313 
     30 C           6.657219    1.611786   -0.067235 C.ar      1 <1>        -0.030857 
     31 C           9.592197    1.579815   -0.278006 C.3       1 <1>         0.043027 
     32 H          -6.293878   -0.028333   -1.607374 H         1 <1>         0.064758 
     33 H          -6.102309    1.156793    1.212906 H         1 <1>         0.064673 
     34 H          -5.666990   -1.417349    1.078921 H         1 <1>         0.067108 
     35 H          -4.191958    1.547365   -1.181005 H         1 <1>         0.064668 
     36 H          -3.821665   -0.912357   -1.303949 H         1 <1>         0.094159 
     37 H          -4.066124    2.611749    1.702783 H         1 <1>         0.058370 
     38 H          -4.424467    3.585418    0.247648 H         1 <1>         0.058370 
     39 H          -8.200701   -1.031718   -0.589547 H         1 <1>         0.210005 
     40 H          -6.609092    2.478035   -1.297785 H         1 <1>         0.210004 
     41 H          -6.672766   -2.857662   -0.538501 H         1 <1>         0.210111 
     42 H          -1.968078    2.142568    0.646280 H         1 <1>         0.209508 
     43 H          -1.627531   -1.698177    2.468495 H         1 <1>         0.064347 
     44 H          -1.691377   -1.849062   -1.896959 H         1 <1>         0.064347 
     45 H           0.919340   -1.372594    2.399101 H         1 <1>         0.062443 
     46 H           0.767016   -1.513583   -1.969176 H         1 <1>         0.062443 
     47 H           2.902566   -3.305706    0.131246 H         1 <1>         0.089749 
     48 H           4.678552    2.473540    0.079521 H         1 <1>         0.062621 
     49 H           7.349326   -1.796347   -0.131854 H         1 <1>         0.066953 
     50 H           7.139449    2.581384   -0.096923 H         1 <1>         0.064349 
     51 H           9.446049    2.166933    0.641571 H         1 <1>         0.052870 
     52 H           9.315997    2.178354   -1.159588 H         1 <1>         0.052870 
     53 H          10.658193    1.319785   -0.356716 H         1 <1>         0.052870 
@<TRIPOS>BOND
     1    1   12 1    
     2   14    1 1    
     3    2   14 1    
     4   16    2 1    
     5   10    3 1    
     6    3   39 1    
     7   11    4 1    
     8    4   40 1    
     9   13    5 1    
    10    5   41 1    
    11   15    6 1    
    12    6   42 1    
    13   25    7 1    
    14    7   26 1    
    15   23    8 2    
    16   29    9 1    
    17    9   31 1    
    18   10   11 1    
    19   13   10 1    
    20   10   32 1    
    21   12   11 1    
    22   11   33 1    
    23   12   15 1    
    24   12   35 1    
    25   14   13 1    
    26   13   34 1    
    27   14   36 1    
    28   15   37 1    
    29   15   38 1    
    30   17   16 2    
    31   18   16 1    
    32   20   17 1    
    33   17   43 1    
    34   21   18 2    
    35   18   44 1    
    36   19   20 2    
    37   19   21 1    
    38   22   19 1    
    39   20   45 1    
    40   21   46 1    
    41   23   22 1    
    42   26   22 2    
    43   24   23 1    
    44   25   24 2    
    45   24   27 1    
    46   28   25 1    
    47   26   47 1    
    48   27   30 2    
    49   27   48 1    
    50   28   29 2    
    51   28   49 1    
    52   29   30 1    
    53   30   50 1    
    54   31   51 1    
    55   31   52 1    
    56   31   53 1    
@<TRIPOS>SUBSTRUCTURE
     1 ****        3 TEMP              0 ****  ****    0 ROOT 
@<TRIPOS>NORMAL
@<TRIPOS>FF_PBC
FORCE_FIELD_SETUP_FEATURE Force Field Setup information
v1.0  0 0.000000 0.000000 0.000000 0.000000 0.000000 0.000000 NONE 0 0 0 0 1 0 0 0 0 0 0 0 0
