@<TRIPOS>MOLECULE
MOL000388
   16    15     1     1     0
SMALL
GASTEIGER


@<TRIPOS>ATOM
      1 C           2.242791    0.354161    0.014625 C.2       1 <1>         0.259629 
      2 C           0.986665   -0.477394   -0.015350 C.3       1 <1>         0.034145 
      3 C          -0.299871    0.387248    0.070954 C.3       1 <1>        -0.031660 
      4 C          -1.580299   -0.488154    0.039412 C.3       1 <1>        -0.006442 
      5 O           2.219721    1.573154    0.085713 O.2       1 <1>        -0.265177 
      6 O           3.382986   -0.336960   -0.042436 O.3       1 <1>        -0.331267 
      7 N          -2.778364    0.366404    0.184945 N.3       1 <1>        -0.329967 
      8 H           0.982305   -1.057664   -0.951222 H         1 <1>         0.036641 
      9 H           1.021572   -1.180005    0.831786 H         1 <1>         0.036641 
     10 H          -0.290578    0.969089    1.007426 H         1 <1>         0.028219 
     11 H          -0.320431    1.094234   -0.774703 H         1 <1>         0.028219 
     12 H          -1.625388   -1.060636   -0.903340 H         1 <1>         0.042191 
     13 H          -1.550037   -1.202936    0.879207 H         1 <1>         0.042191 
     14 H           4.143229    0.234195   -0.019787 H         1 <1>         0.220208 
     15 H          -3.676326   -0.236469    0.232869 H         1 <1>         0.118213 
     16 H          -2.857877    1.061736   -0.640399 H         1 <1>         0.118213 
@<TRIPOS>BOND
     1    1    2 1    
     2    1    5 2    
     3    1    6 1    
     4    2    3 1    
     5    2    8 1    
     6    2    9 1    
     7    3    4 1    
     8    3   10 1    
     9    3   11 1    
    10    4    7 1    
    11    4   12 1    
    12    4   13 1    
    13    6   14 1    
    14    7   15 1    
    15    7   16 1    
@<TRIPOS>SUBSTRUCTURE
     1 ****        1 TEMP              0 ****  ****    0 ROOT 
@<TRIPOS>NORMAL
@<TRIPOS>FF_PBC
FORCE_FIELD_SETUP_FEATURE Force Field Setup information
v1.0  0 0.000000 0.000000 0.000000 0.000000 0.000000 0.000000 NONE 0 0 0 0 1 0 0 0 0 0 0 0 0
