@<TRIPOS>MOLECULE
MOL004738
   26    26     1     1     0
SMALL
GASTEIGER


@<TRIPOS>ATOM
      1 C          -0.124815   -1.788430    0.242788 C.ar      1 <1>        -0.047283 
      2 C           0.784167   -0.573442   -0.009412 C.3       1 <1>        -0.025584 
      3 C           0.533308   -3.107190    0.422982 C.ar      1 <1>        -0.058572 
      4 C          -1.541210   -1.720438    0.312018 C.ar      1 <1>        -0.058572 
      5 C           0.061365    0.795833   -0.128146 C.3       1 <1>        -0.024834 
      6 C          -0.225084   -4.264495    0.657602 C.ar      1 <1>        -0.061501 
      7 C          -2.338811   -2.945513    0.559906 C.ar      1 <1>        -0.061501 
      8 C           1.068360    1.952186   -0.354707 C.3       1 <1>         0.058911 
      9 C          -1.702116   -4.181820    0.728097 C.ar      1 <1>        -0.061742 
     10 O           0.320687    3.181009   -0.459212 O.3       1 <1>        -0.300005 
     11 C           1.081297    4.266422   -0.662863 C.2       1 <1>         0.349639 
     12 N           0.363563    5.400552   -0.755508 N.am      1 <1>        -0.305286 
     13 O           2.298191    4.228764   -0.754733 O.2       1 <1>        -0.241592 
     14 H           1.504097   -0.525962    0.823168 H         1 <1>         0.031389 
     15 H           1.342393   -0.768766   -0.938841 H         1 <1>         0.031389 
     16 H           1.615142   -3.178369    0.372729 H         1 <1>         0.062029 
     17 H          -2.069798   -0.783792    0.187156 H         1 <1>         0.062029 
     18 H          -0.638614    0.779701   -0.979627 H         1 <1>         0.029063 
     19 H          -0.502690    1.004105    0.795911 H         1 <1>         0.029063 
     20 H           0.268130   -5.222465    0.787813 H         1 <1>         0.061766 
     21 H          -3.421212   -2.882053    0.610943 H         1 <1>         0.061766 
     22 H           1.770424    1.998620    0.495451 H         1 <1>         0.056641 
     23 H           1.636533    1.764822   -1.282024 H         1 <1>         0.056641 
     24 H          -2.286740   -5.078104    0.909623 H         1 <1>         0.061758 
     25 H           0.836497    6.267385   -0.907943 H         1 <1>         0.147195 
     26 H          -0.632866    5.381839   -0.673368 H         1 <1>         0.147195 
@<TRIPOS>BOND
     1    1    2 1    
     2    1    3 1    
     3    1    4 2    
     4    2    5 1    
     5    2   14 1    
     6    2   15 1    
     7    3    6 2    
     8    3   16 1    
     9    4    7 1    
    10    4   17 1    
    11    5    8 1    
    12    5   18 1    
    13    5   19 1    
    14    6    9 1    
    15    6   20 1    
    16    7    9 2    
    17    7   21 1    
    18    8   10 1    
    19    8   22 1    
    20    8   23 1    
    21    9   24 1    
    22   10   11 1    
    23   11   12 1    
    24   11   13 2    
    25   12   25 1    
    26   12   26 1    
@<TRIPOS>SUBSTRUCTURE
     1 ****        1 TEMP              0 ****  ****    0 ROOT 
@<TRIPOS>NORMAL
@<TRIPOS>FF_PBC
FORCE_FIELD_SETUP_FEATURE Force Field Setup information
v1.0  0 0.000000 0.000000 0.000000 0.000000 0.000000 0.000000 NONE 0 0 0 0 1 0 0 0 0 0 0 0 0
