@<TRIPOS>MOLECULE
MOL013353
   25    25     1     1     0
SMALL
GASTEIGER


@<TRIPOS>ATOM
      1 O          -1.022273    2.593506   -0.701705 O.3       1 <1>        -0.385916 
      2 O           4.368548   -0.886661   -0.244634 O.3       1 <1>        -0.359832 
      3 N          -1.821864   -0.873841    0.513927 N.3       1 <1>        -0.316208 
      4 C          -0.969251    1.441478    0.160917 C.3       1 <1>         0.092579 
      5 C          -1.994421    0.365464   -0.279699 C.3       1 <1>         0.025824 
      6 C           0.436791    0.832621    0.077791 C.ar      1 <1>        -0.017785 
      7 C           1.091711    0.350466    1.233547 C.ar      1 <1>        -0.053654 
      8 C           1.121489    0.741250   -1.235182 C.ar      1 <1>        -0.053654 
      9 C           2.447260   -0.241015    1.135419 C.ar      1 <1>        -0.031601 
     10 C           2.402322    0.174002   -1.327766 C.ar      1 <1>        -0.031601 
     11 C           3.092381   -0.331369   -0.118632 C.ar      1 <1>         0.072600 
     12 C          -2.621960   -2.027976    0.048893 C.3       1 <1>        -0.015686 
     13 H          -1.176514    1.754006    1.198892 H         1 <1>         0.065623 
     14 H          -1.815450    0.147895   -1.344759 H         1 <1>         0.045255 
     15 H          -3.020260    0.754986   -0.173030 H         1 <1>         0.045255 
     16 H           0.606610    0.405924    2.202103 H         1 <1>         0.062190 
     17 H           0.630090    1.112705   -2.128853 H         1 <1>         0.062190 
     18 H          -2.006574   -0.683449    1.565410 H         1 <1>         0.121735 
     19 H           2.932924   -0.602373    2.035243 H         1 <1>         0.064329 
     20 H           2.899157    0.102477   -2.289708 H         1 <1>         0.064329 
     21 H          -1.867616    3.030264   -0.691461 H         1 <1>         0.210287 
     22 H          -3.700794   -1.816465    0.122408 H         1 <1>         0.038809 
     23 H          -2.390890   -2.913759    0.661354 H         1 <1>         0.038809 
     24 H          -2.375635   -2.263881   -0.997865 H         1 <1>         0.038809 
     25 H           4.754717   -1.167253    0.577191 H         1 <1>         0.217313 
@<TRIPOS>BOND
     1    4    1 1    
     2    1   21 1    
     3   11    2 1    
     4    2   25 1    
     5    5    3 1    
     6    3   12 1    
     7    3   18 1    
     8    4    5 1    
     9    6    4 1    
    10    4   13 1    
    11    5   14 1    
    12    5   15 1    
    13    7    6 2    
    14    6    8 1    
    15    9    7 1    
    16    7   16 1    
    17    8   10 2    
    18    8   17 1    
    19    9   11 2    
    20    9   19 1    
    21   10   11 1    
    22   10   20 1    
    23   12   22 1    
    24   12   23 1    
    25   12   24 1    
@<TRIPOS>SUBSTRUCTURE
     1 ****        1 TEMP              0 ****  ****    0 ROOT 
@<TRIPOS>NORMAL
@<TRIPOS>FF_PBC
FORCE_FIELD_SETUP_FEATURE Force Field Setup information
v1.0  0 0.000000 0.000000 0.000000 0.000000 0.000000 0.000000 NONE 0 0 0 0 1 0 0 0 0 0 0 0 0
