@<TRIPOS>MOLECULE
MOL012942
   69    72     1     1     0
SMALL
GASTEIGER


@<TRIPOS>ATOM
      1 O          -1.301549    2.735844    1.255722 O.3       1 <1>        -0.340027 
      2 O           1.666143    2.228581   -0.475508 O.3       1 <1>        -0.302651 
      3 O           0.013669    3.907378   -1.995992 O.3       1 <1>        -0.386460 
      4 O           0.635358    4.661015    2.176381 O.3       1 <1>        -0.384062 
      5 O           0.188603    1.004652    1.484076 O.3       1 <1>        -0.278318 
      6 O          -3.583495    2.281453   -0.453779 O.3       1 <1>        -0.308753 
      7 O           3.697257    2.600377    0.392764 O.2       1 <1>        -0.259212 
      8 O           1.764402    0.890868    3.076627 O.2       1 <1>        -0.259141 
      9 O          -2.728731    0.931042   -2.033728 O.2       1 <1>        -0.259223 
     10 O           6.766976   -1.162357   -1.398484 O.3       1 <1>        -0.357199 
     11 O           2.189261   -2.569316   -2.459866 O.3       1 <1>        -0.357199 
     12 O           4.934932   -3.062519   -2.510421 O.3       1 <1>        -0.355395 
     13 O           4.059433   -3.724610    2.614244 O.3       1 <1>        -0.357199 
     14 O           0.192137   -3.848493   -0.406538 O.3       1 <1>        -0.357199 
     15 O           2.391096   -5.122527    0.758597 O.3       1 <1>        -0.355395 
     16 O          -5.604258   -3.388720   -1.994796 O.3       1 <1>        -0.357199 
     17 O          -7.160554   -0.719992    1.818869 O.3       1 <1>        -0.357199 
     18 O          -7.316871   -3.038864    0.271127 O.3       1 <1>        -0.355395 
     19 C           1.247126    3.482677    0.103364 C.3       1 <1>         0.127164 
     20 C          -0.100025    3.862721   -0.558848 C.3       1 <1>         0.112789 
     21 C          -1.168966    2.808279   -0.180265 C.3       1 <1>         0.113902 
     22 C           1.039673    3.383533    1.637881 C.3       1 <1>         0.135486 
     23 C          -0.086989    2.350082    1.926809 C.3       1 <1>         0.196875 
     24 C          -2.542205    3.225824   -0.769738 C.3       1 <1>         0.086172 
     25 C           2.938694    1.887263   -0.244318 C.2       1 <1>         0.294389 
     26 C           1.151640    0.367130    2.159806 C.2       1 <1>         0.296291 
     27 C           3.451383    0.583942   -0.814472 C.ar      1 <1>         0.051505 
     28 C          -3.529311    1.125982   -1.131552 C.2       1 <1>         0.294052 
     29 C           1.480758   -1.060355    1.785777 C.ar      1 <1>         0.051575 
     30 C          -4.511043    0.033605   -0.765784 C.ar      1 <1>         0.051495 
     31 C           2.558020   -0.345787   -1.359256 C.ar      1 <1>        -0.016369 
     32 C           4.905362    0.294939   -0.809229 C.ar      1 <1>        -0.016369 
     33 C           0.672694   -1.749008    0.874021 C.ar      1 <1>        -0.016368 
     34 C           2.655841   -1.738397    2.385115 C.ar      1 <1>        -0.016368 
     35 C           5.394853   -0.893691   -1.374303 C.ar      1 <1>         0.105520 
     36 C           3.065689   -1.618968   -1.930704 C.ar      1 <1>         0.105520 
     37 C          -5.349634    0.197493    0.343596 C.ar      1 <1>        -0.016369 
     38 C          -4.593442   -1.207151   -1.574403 C.ar      1 <1>        -0.016369 
     39 C           4.446596   -1.877384   -1.949874 C.ar      1 <1>         0.132457 
     40 C           2.956783   -3.070978    2.052457 C.ar      1 <1>         0.105520 
     41 C           0.986344   -3.152499    0.510646 C.ar      1 <1>         0.105520 
     42 C           2.093658   -3.797444    1.087342 C.ar      1 <1>         0.132457 
     43 C          -5.514054   -2.215253   -1.238007 C.ar      1 <1>         0.105520 
     44 C          -6.320089   -0.864592    0.710860 C.ar      1 <1>         0.105520 
     45 C          -6.400917   -2.035335   -0.062314 C.ar      1 <1>         0.132457 
     46 H           1.960687    4.288852   -0.137853 H         1 <1>         0.065671 
     47 H          -0.429480    4.843062   -0.174924 H         1 <1>         0.064700 
     48 H          -0.880442    1.829847   -0.596795 H         1 <1>         0.064695 
     49 H           1.974857    3.080339    2.133393 H         1 <1>         0.067136 
     50 H          -0.320766    2.367393    3.005366 H         1 <1>         0.094270 
     51 H          -2.487859    3.425305   -1.852299 H         1 <1>         0.059272 
     52 H          -2.837477    4.161779   -0.272899 H         1 <1>         0.059272 
     53 H           0.656612    4.536580   -2.307677 H         1 <1>         0.210004 
     54 H           1.283521    5.350937    2.067392 H         1 <1>         0.210111 
     55 H           1.494186   -0.137179   -1.371741 H         1 <1>         0.065181 
     56 H           5.589800    1.012849   -0.370528 H         1 <1>         0.065181 
     57 H          -0.189130   -1.260427    0.431328 H         1 <1>         0.065181 
     58 H           3.282477   -1.193427    3.083954 H         1 <1>         0.065181 
     59 H          -5.292463    1.101850    0.938209 H         1 <1>         0.065181 
     60 H          -3.937756   -1.331785   -2.429616 H         1 <1>         0.065181 
     61 H           7.316062   -0.389937   -1.327602 H         1 <1>         0.217423 
     62 H           1.289103   -2.471021   -2.169978 H         1 <1>         0.217423 
     63 H           4.239197   -3.590790   -2.888312 H         1 <1>         0.217501 
     64 H           4.553958   -3.208407    3.240650 H         1 <1>         0.217423 
     65 H          -0.667656   -3.463788   -0.542048 H         1 <1>         0.217423 
     66 H           1.764777   -5.488008    0.142058 H         1 <1>         0.217501 
     67 H          -5.230533   -3.322970   -2.865814 H         1 <1>         0.217423 
     68 H          -6.998643    0.066422    2.328071 H         1 <1>         0.217423 
     69 H          -7.866878   -2.789314    1.006958 H         1 <1>         0.217501 
@<TRIPOS>BOND
     1   21    1 1    
     2    1   23 1    
     3   19    2 1    
     4    2   25 1    
     5   20    3 1    
     6    3   53 1    
     7   22    4 1    
     8    4   54 1    
     9   23    5 1    
    10    5   26 1    
    11    6   24 1    
    12   28    6 1    
    13   25    7 2    
    14   26    8 2    
    15   28    9 2    
    16   35   10 1    
    17   10   61 1    
    18   36   11 1    
    19   11   62 1    
    20   39   12 1    
    21   12   63 1    
    22   40   13 1    
    23   13   64 1    
    24   41   14 1    
    25   14   65 1    
    26   42   15 1    
    27   15   66 1    
    28   43   16 1    
    29   16   67 1    
    30   44   17 1    
    31   17   68 1    
    32   45   18 1    
    33   18   69 1    
    34   20   19 1    
    35   19   22 1    
    36   19   46 1    
    37   21   20 1    
    38   20   47 1    
    39   24   21 1    
    40   21   48 1    
    41   23   22 1    
    42   22   49 1    
    43   23   50 1    
    44   24   51 1    
    45   24   52 1    
    46   25   27 1    
    47   26   29 1    
    48   27   31 2    
    49   27   32 1    
    50   30   28 1    
    51   29   33 2    
    52   29   34 1    
    53   30   37 2    
    54   38   30 1    
    55   31   36 1    
    56   31   55 1    
    57   32   35 2    
    58   32   56 1    
    59   33   41 1    
    60   33   57 1    
    61   34   40 2    
    62   34   58 1    
    63   35   39 1    
    64   36   39 2    
    65   37   44 1    
    66   37   59 1    
    67   43   38 2    
    68   38   60 1    
    69   40   42 1    
    70   41   42 2    
    71   43   45 1    
    72   44   45 2    
@<TRIPOS>SUBSTRUCTURE
     1 ****        2 TEMP              0 ****  ****    0 ROOT 
@<TRIPOS>NORMAL
@<TRIPOS>FF_PBC
FORCE_FIELD_SETUP_FEATURE Force Field Setup information
v1.0  0 0.000000 0.000000 0.000000 0.000000 0.000000 0.000000 NONE 0 0 0 0 1 0 0 0 0 0 0 0 0
