@<TRIPOS>MOLECULE
MOL000669
   27    28     1     1     0
SMALL
GASTEIGER


@<TRIPOS>ATOM
      1 C           0.816552    0.346537   -0.129320 C.3       1 <1>         0.031574 
      2 C          -0.408145   -0.589060   -0.311530 C.3       1 <1>        -0.019611 
      3 C           0.136648    1.657372   -0.425737 C.2       1 <1>         0.139987 
      4 C           1.056925    0.387393    1.404854 C.3       1 <1>        -0.040130 
      5 C           2.075686    0.039385   -0.974751 C.3       1 <1>        -0.052324 
      6 C          -1.264839    0.241390    0.692423 C.3       1 <1>        -0.028287 
      7 C          -0.179723   -2.073999    0.118239 C.3       1 <1>        -0.058660 
      8 C          -0.982155   -0.618003   -1.766516 C.3       1 <1>        -0.058660 
      9 C          -1.264349    1.685415    0.110162 C.3       1 <1>         0.009733 
     10 O           0.644318    2.573772   -1.051101 O.2       1 <1>        -0.296801 
     11 C          -0.386048    0.271592    1.978366 C.3       1 <1>        -0.048410 
     12 H          -2.281181   -0.145872    0.871174 H         1 <1>         0.031024 
     13 H           1.698521   -0.443988    1.736580 H         1 <1>         0.027481 
     14 H           1.550590    1.328892    1.699006 H         1 <1>         0.027481 
     15 H           2.470378   -0.956651   -0.726260 H         1 <1>         0.023926 
     16 H           1.833629    0.072562   -2.047166 H         1 <1>         0.023926 
     17 H           2.850772    0.791642   -0.764574 H         1 <1>         0.023926 
     18 H           0.467035   -2.584310   -0.611046 H         1 <1>         0.023535 
     19 H          -1.150210   -2.592741    0.136879 H         1 <1>         0.023535 
     20 H           0.287751   -2.214904    1.099283 H         1 <1>         0.023535 
     21 H          -0.348226   -1.240104   -2.415944 H         1 <1>         0.023535 
     22 H          -1.054233    0.362617   -2.255686 H         1 <1>         0.023535 
     23 H          -1.989347   -1.061140   -1.746844 H         1 <1>         0.023535 
     24 H          -1.411646    2.477323    0.860046 H         1 <1>         0.034460 
     25 H          -2.005526    1.817314   -0.692059 H         1 <1>         0.034460 
     26 H          -0.523559   -0.647220    2.569764 H         1 <1>         0.026849 
     27 H          -0.639419    1.114490    2.641657 H         1 <1>         0.026849 
@<TRIPOS>BOND
     1    1    2 1    
     2    1    3 1    
     3    1    4 1    
     4    1    5 1    
     5    2    6 1    
     6    2    7 1    
     7    2    8 1    
     8    3    9 1    
     9    3   10 2    
    10    4   11 1    
    11    4   13 1    
    12    4   14 1    
    13    5   15 1    
    14    5   16 1    
    15    5   17 1    
    16    6    9 1    
    17    6   11 1    
    18    6   12 1    
    19    7   18 1    
    20    7   19 1    
    21    7   20 1    
    22    8   21 1    
    23    8   22 1    
    24    8   23 1    
    25    9   24 1    
    26    9   25 1    
    27   11   26 1    
    28   11   27 1    
@<TRIPOS>SUBSTRUCTURE
     1 ****        1 TEMP              0 ****  ****    0 ROOT 
@<TRIPOS>NORMAL
@<TRIPOS>FF_PBC
FORCE_FIELD_SETUP_FEATURE Force Field Setup information
v1.0  0 0.000000 0.000000 0.000000 0.000000 0.000000 0.000000 NONE 0 0 0 0 1 0 0 0 0 0 0 0 0
