@<TRIPOS>MOLECULE
MOL004959
   48    51     1     1     0
SMALL
GASTEIGER


@<TRIPOS>ATOM
      1 O          -0.286587   -0.093654    0.659007 O.3       1 <1>        -0.335384 
      2 O           2.573755    2.558935    0.483249 O.3       1 <1>        -0.343474 
      3 O           1.692133   -2.283110    0.258664 O.3       1 <1>        -0.347389 
      4 O          -3.181949    2.620500   -2.310715 O.3       1 <1>        -0.359468 
      5 O           5.311835   -0.267845   -2.410624 O.3       1 <1>        -0.359667 
      6 C           0.707463    1.775756    1.826870 C.3       1 <1>         0.041495 
      7 C           0.912600    0.302381    1.362929 C.3       1 <1>         0.103919 
      8 C          -0.281760    2.226633    0.766028 C.ar      1 <1>        -0.008855 
      9 C           2.026483    2.578159    1.806875 C.3       1 <1>         0.063815 
     10 C           2.083111    0.172310    0.380371 C.ar      1 <1>         0.042293 
     11 C          -0.778202    1.107248    0.171014 C.ar      1 <1>         0.086493 
     12 C           2.845392    1.287501   -0.019484 C.ar      1 <1>         0.086766 
     13 C          -1.779872    1.185169   -0.916176 C.ar      1 <1>         0.016274 
     14 C          -0.710711    3.582241    0.363457 C.ar      1 <1>        -0.053242 
     15 C           2.418915   -1.168117   -0.157836 C.ar      1 <1>         0.086379 
     16 C          -2.224245    2.469428   -1.308401 C.ar      1 <1>         0.078508 
     17 C          -1.668669    3.686457   -0.658187 C.ar      1 <1>        -0.031232 
     18 C          -2.280536   -0.113409   -1.562559 C.3       1 <1>        -0.004345 
     19 C           3.952768    1.118370   -0.988224 C.ar      1 <1>        -0.001391 
     20 C           3.463403   -1.319236   -1.074219 C.ar      1 <1>        -0.001404 
     21 C           4.258871   -0.141272   -1.503628 C.ar      1 <1>         0.077490 
     22 C          -3.396837   -0.686049   -0.721121 C.2       1 <1>        -0.080815 
     23 C          -3.385008   -1.872538   -0.090517 C.2       1 <1>        -0.079306 
     24 C           2.362087   -3.104518    1.229358 C.3       1 <1>         0.043042 
     25 C          -4.579777   -2.343069    0.712963 C.3       1 <1>        -0.044040 
     26 C          -2.210316   -2.828826   -0.129295 C.3       1 <1>        -0.044040 
     27 H           0.212278    1.820405    2.810542 H         1 <1>         0.040101 
     28 H           1.106447   -0.374403    2.210830 H         1 <1>         0.065993 
     29 H           1.842082    3.627409    2.083509 H         1 <1>         0.057187 
     30 H           2.745769    2.148180    2.523164 H         1 <1>         0.057187 
     31 H          -0.300214    4.462025    0.842688 H         1 <1>         0.062198 
     32 H          -2.011500    4.664067   -0.979580 H         1 <1>         0.064339 
     33 H          -2.663064    0.083894   -2.573826 H         1 <1>         0.035721 
     34 H          -1.425781   -0.795868   -1.675045 H         1 <1>         0.035721 
     35 H           4.530644    1.980863   -1.299254 H         1 <1>         0.066921 
     36 H           3.689297   -2.305857   -1.464334 H         1 <1>         0.066921 
     37 H          -4.282067   -0.053089   -0.641918 H         1 <1>         0.057473 
     38 H          -3.963525    2.110262   -2.129088 H         1 <1>         0.217326 
     39 H           2.630013   -2.520789    2.123723 H         1 <1>         0.052870 
     40 H           3.272603   -3.558342    0.808910 H         1 <1>         0.052870 
     41 H           1.673771   -3.908703    1.528543 H         1 <1>         0.052870 
     42 H           5.474634   -1.165301   -2.679726 H         1 <1>         0.217316 
     43 H          -5.440581   -1.658084    0.652024 H         1 <1>         0.027427 
     44 H          -4.902390   -3.327572    0.338881 H         1 <1>         0.027427 
     45 H          -4.293911   -2.441093    1.772025 H         1 <1>         0.027427 
     46 H          -1.268918   -2.325430    0.132512 H         1 <1>         0.027427 
     47 H          -2.343611   -3.656235    0.586008 H         1 <1>         0.027427 
     48 H          -2.124225   -3.257884   -1.139485 H         1 <1>         0.027427 
@<TRIPOS>BOND
     1    7    1 1    
     2    1   11 1    
     3    2    9 1    
     4   12    2 1    
     5   15    3 1    
     6    3   24 1    
     7   16    4 1    
     8    4   38 1    
     9   21    5 1    
    10    5   42 1    
    11    7    6 1    
    12    6    8 1    
    13    9    6 1    
    14    6   27 1    
    15   10    7 1    
    16    7   28 1    
    17    8   11 2    
    18    8   14 1    
    19    9   29 1    
    20    9   30 1    
    21   12   10 2    
    22   10   15 1    
    23   11   13 1    
    24   19   12 1    
    25   13   16 2    
    26   13   18 1    
    27   14   17 2    
    28   14   31 1    
    29   15   20 2    
    30   17   16 1    
    31   17   32 1    
    32   18   22 1    
    33   18   33 1    
    34   18   34 1    
    35   19   21 2    
    36   19   35 1    
    37   20   21 1    
    38   20   36 1    
    39   22   23 2    
    40   22   37 1    
    41   23   25 1    
    42   23   26 1    
    43   24   39 1    
    44   24   40 1    
    45   24   41 1    
    46   25   43 1    
    47   25   44 1    
    48   25   45 1    
    49   26   46 1    
    50   26   47 1    
    51   26   48 1    
@<TRIPOS>SUBSTRUCTURE
     1 ****        1 TEMP              0 ****  ****    0 ROOT 
@<TRIPOS>NORMAL
@<TRIPOS>FF_PBC
FORCE_FIELD_SETUP_FEATURE Force Field Setup information
v1.0  0 0.000000 0.000000 0.000000 0.000000 0.000000 0.000000 NONE 0 0 0 0 1 0 0 0 0 0 0 0 0
