@<TRIPOS>MOLECULE
MOL002860
   27    28     1     1     0
SMALL
GASTEIGER


@<TRIPOS>ATOM
      1 O           2.878448   -0.844871   -0.227561 O.3       1 <1>        -0.387492 
      2 C          -1.174039    0.040192    0.078006 C.3       1 <1>        -0.025370 
      3 C          -0.488322   -1.354111    0.002561 C.3       1 <1>        -0.032147 
      4 C          -0.134531    0.465637   -0.991374 C.3       1 <1>        -0.012079 
      5 C          -0.028852   -1.014991   -1.439484 C.3       1 <1>        -0.042499 
      6 C           0.785248   -1.415437    0.894190 C.3       1 <1>        -0.019630 
      7 C           1.153573    0.830735   -0.283585 C.2       1 <1>        -0.044924 
      8 C           1.798385   -0.276370    0.537901 C.3       1 <1>         0.076553 
      9 C          -1.159627    0.807014    1.436387 C.3       1 <1>        -0.059014 
     10 C          -2.634426    0.019044   -0.470464 C.3       1 <1>        -0.059014 
     11 C           1.687004    2.055749   -0.370254 C.2       1 <1>        -0.096745 
     12 H          -1.159765   -2.221942    0.109410 H         1 <1>         0.030720 
     13 H          -0.489244    1.178959   -1.752484 H         1 <1>         0.035170 
     14 H          -0.762118   -1.292045   -2.212101 H         1 <1>         0.027399 
     15 H           0.966194   -1.371019   -1.748155 H         1 <1>         0.027399 
     16 H           1.272966   -2.392593    0.747699 H         1 <1>         0.029612 
     17 H           0.473656   -1.369469    1.949762 H         1 <1>         0.029612 
     18 H           2.225699    0.133010    1.471021 H         1 <1>         0.064023 
     19 H          -0.169910    0.942734    1.889792 H         1 <1>         0.023525 
     20 H          -1.583438    1.811423    1.286831 H         1 <1>         0.023525 
     21 H          -1.788268    0.267541    2.160669 H         1 <1>         0.023525 
     22 H          -2.986708    1.050853   -0.620445 H         1 <1>         0.023525 
     23 H          -2.752589   -0.512578   -1.423867 H         1 <1>         0.023525 
     24 H          -3.291836   -0.469508    0.264634 H         1 <1>         0.023525 
     25 H           2.613515    2.302215    0.147187 H         1 <1>         0.053529 
     26 H           1.209354    2.838257   -0.958773 H         1 <1>         0.053529 
     27 H           3.540430   -0.207328   -0.476407 H         1 <1>         0.210218 
@<TRIPOS>BOND
     1    8    1 1    
     2    1   27 1    
     3    3    2 1    
     4    2    4 1    
     5    2    9 1    
     6    2   10 1    
     7    3    5 1    
     8    6    3 1    
     9    3   12 1    
    10    5    4 1    
    11    4    7 1    
    12    4   13 1    
    13    5   14 1    
    14    5   15 1    
    15    6    8 1    
    16    6   16 1    
    17    6   17 1    
    18    7    8 1    
    19    7   11 2    
    20    8   18 1    
    21    9   19 1    
    22    9   20 1    
    23    9   21 1    
    24   10   22 1    
    25   10   23 1    
    26   10   24 1    
    27   11   25 1    
    28   11   26 1    
@<TRIPOS>SUBSTRUCTURE
     1 ****        2 TEMP              0 ****  ****    0 ROOT 
@<TRIPOS>NORMAL
@<TRIPOS>FF_PBC
FORCE_FIELD_SETUP_FEATURE Force Field Setup information
v1.0  0 0.000000 0.000000 0.000000 0.000000 0.000000 0.000000 NONE 0 0 0 0 1 0 0 0 0 0 0 0 0
