@<TRIPOS>MOLECULE
MOL002257
   55    58     1     1     0
SMALL
GASTEIGER


@<TRIPOS>ATOM
      1 C          -1.807592    1.087549   -1.452305 C.ar      1 <1>        -0.058607 
      2 C          -1.452133   -0.169471   -0.755168 C.ar      1 <1>        -0.030827 
      3 C          -0.280720   -0.240829    0.042199 C.ar      1 <1>         0.090952 
      4 C           0.592752    0.956524    0.161768 C.ar      1 <1>         0.063179 
      5 C           0.262413    2.150500   -0.535519 C.ar      1 <1>         0.035657 
      6 C          -0.981278    2.216294   -1.344225 C.ar      1 <1>        -0.050070 
      7 C           1.846537    0.973110    1.006308 C.2       1 <1>         0.199541 
      8 C           2.955515    1.927978    0.634805 C.ar      1 <1>         0.065713 
      9 C           2.633724    3.114344   -0.020309 C.ar      1 <1>         0.067763 
     10 C           1.198932    3.335210   -0.445041 C.2       1 <1>         0.197220 
     11 C           4.361750    1.588973    0.947797 C.ar      1 <1>         0.089580 
     12 C           5.398948    2.511666    0.633723 C.ar      1 <1>         0.012435 
     13 C           5.072027    3.820708    0.014923 C.ar      1 <1>         0.111479 
     14 C           3.682597    4.130256   -0.308409 C.ar      1 <1>         0.114498 
     15 O           0.823289    4.456732   -0.744381 O.2       1 <1>        -0.286520 
     16 O           3.332357    5.359119   -0.878574 O.3       1 <1>        -0.356687 
     17 O           1.971692    0.239275    1.973974 O.2       1 <1>        -0.286434 
     18 C           6.870959    2.186659    0.914988 C.3       1 <1>        -0.034708 
     19 O           6.129794    4.710715   -0.233266 O.3       1 <1>        -0.344981 
     20 C           5.932977    6.035275   -0.750445 C.3       1 <1>         0.043149 
     21 O           4.656290    0.354247    1.523854 O.3       1 <1>        -0.358754 
     22 O           0.018081   -1.426268    0.712813 O.3       1 <1>        -0.311822 
     23 C           1.253062   -2.120678    0.457280 C.3       1 <1>         0.193669 
     24 O           1.215183   -2.940722   -0.725816 O.3       1 <1>        -0.340168 
     25 C           2.470040   -3.630355   -0.956415 C.3       1 <1>         0.113017 
     26 C           2.819369   -4.558186    0.240424 C.3       1 <1>         0.111896 
     27 C           2.833375   -3.752051    1.564657 C.3       1 <1>         0.114074 
     28 C           1.491822   -2.996343    1.711519 C.3       1 <1>         0.134509 
     29 C           2.377890   -4.444797   -2.271760 C.3       1 <1>         0.073015 
     30 O           3.018527   -4.662508    2.664777 O.3       1 <1>        -0.386401 
     31 O           4.110369   -5.158606    0.023768 O.3       1 <1>        -0.386488 
     32 O           1.458664   -2.228193    2.932279 O.3       1 <1>        -0.384091 
     33 O           2.293463   -3.544753   -3.394263 O.3       1 <1>        -0.392366 
     34 H          -2.715028    1.133988   -2.047523 H         1 <1>         0.061857 
     35 H          -2.088743   -1.044391   -0.845766 H         1 <1>         0.064350 
     36 H          -1.247912    3.137202   -1.852161 H         1 <1>         0.062482 
     37 H           2.393619    5.515409   -0.920080 H         1 <1>         0.217444 
     38 H           6.993888    1.316356    1.576043 H         1 <1>         0.027915 
     39 H           7.373418    1.981488   -0.042126 H         1 <1>         0.027915 
     40 H           7.353588    3.051788    1.392441 H         1 <1>         0.027915 
     41 H           6.917707    6.521008   -0.813777 H         1 <1>         0.052871 
     42 H           5.297441    6.629892   -0.076994 H         1 <1>         0.052871 
     43 H           5.500874    6.007696   -1.761902 H         1 <1>         0.052871 
     44 H           5.132315   -0.199408    0.914376 H         1 <1>         0.217352 
     45 H           2.093554   -1.425596    0.337954 H         1 <1>         0.094160 
     46 H           3.291370   -2.906531   -1.095987 H         1 <1>         0.064668 
     47 H           2.042303   -5.339509    0.310723 H         1 <1>         0.064673 
     48 H           3.666117   -3.027724    1.536613 H         1 <1>         0.064758 
     49 H           0.675720   -3.733697    1.775479 H         1 <1>         0.067108 
     50 H           3.275604   -5.077896   -2.379459 H         1 <1>         0.058370 
     51 H           1.486360   -5.091780   -2.222929 H         1 <1>         0.058370 
     52 H           2.991703   -4.213981    3.506054 H         1 <1>         0.210005 
     53 H           4.360827   -5.727321    0.747388 H         1 <1>         0.210004 
     54 H           2.017589   -1.455113    2.899830 H         1 <1>         0.210111 
     55 H           2.218610   -3.995651   -4.230259 H         1 <1>         0.209508 
@<TRIPOS>BOND
     1    1    2 1    
     2    1    6 2    
     3    1   34 1    
     4    2    3 2    
     5    2   35 1    
     6    3    4 1    
     7    3   22 1    
     8    4    5 2    
     9    4    7 1    
    10    5    6 1    
    11    5   10 1    
    12    6   36 1    
    13    7    8 1    
    14    7   17 2    
    15    8    9 2    
    16    8   11 1    
    17    9   10 1    
    18    9   14 1    
    19   10   15 2    
    20   11   12 2    
    21   11   21 1    
    22   12   13 1    
    23   12   18 1    
    24   13   14 2    
    25   13   19 1    
    26   14   16 1    
    27   16   37 1    
    28   18   38 1    
    29   18   39 1    
    30   18   40 1    
    31   19   20 1    
    32   20   41 1    
    33   20   42 1    
    34   20   43 1    
    35   21   44 1    
    36   22   23 1    
    37   23   24 1    
    38   23   28 1    
    39   23   45 1    
    40   24   25 1    
    41   25   26 1    
    42   25   29 1    
    43   25   46 1    
    44   26   27 1    
    45   26   31 1    
    46   26   47 1    
    47   27   28 1    
    48   27   30 1    
    49   27   48 1    
    50   28   32 1    
    51   28   49 1    
    52   29   33 1    
    53   29   50 1    
    54   29   51 1    
    55   30   52 1    
    56   31   53 1    
    57   32   54 1    
    58   33   55 1    
@<TRIPOS>SUBSTRUCTURE
     1 ****        1 TEMP              0 ****  ****    0 ROOT 
@<TRIPOS>NORMAL
@<TRIPOS>FF_PBC
FORCE_FIELD_SETUP_FEATURE Force Field Setup information
v1.0  0 0.000000 0.000000 0.000000 0.000000 0.000000 0.000000 NONE 0 0 0 0 1 0 0 0 0 0 0 0 0
