@<TRIPOS>MOLECULE
MOL002278
  106   113     1     1     0
SMALL
GASTEIGER


@<TRIPOS>ATOM
      1 C          -1.232992    0.817266    0.643106 C.ar      1 <1>        -0.025759 
      2 C          -2.313133    1.797908    0.361995 C.ar      1 <1>         0.056150 
      3 C          -3.081857    2.307208    1.408759 C.ar      1 <1>         0.090545 
      4 C          -2.741999    1.913666    2.797324 C.ar      1 <1>        -0.030849 
      5 C          -1.762100    1.031379    3.044406 C.ar      1 <1>        -0.059004 
      6 C          -0.984029    0.443167    1.930438 C.ar      1 <1>        -0.057128 
      7 C          -0.392883    0.244925   -0.512234 C.3       1 <1>         0.021588 
      8 C          -1.266750    0.045968   -1.761662 C.ar      1 <1>        -0.025032 
      9 C          -2.277429    1.077112   -2.093963 C.ar      1 <1>         0.055821 
     10 C          -2.509970    2.174041   -1.085909 C.2       1 <1>         0.198636 
     11 C          -1.115256   -1.030902   -2.584662 C.ar      1 <1>        -0.044250 
     12 C          -1.895306   -1.124108   -3.846137 C.ar      1 <1>         0.049022 
     13 C          -2.773602   -0.135817   -4.175336 C.ar      1 <1>        -0.018357 
     14 C          -2.983534    1.016744   -3.269006 C.ar      1 <1>         0.084406 
     15 C           0.784004    1.211034   -0.864440 C.3       1 <1>         0.021577 
     16 C           1.662995    0.527164   -1.927341 C.ar      1 <1>        -0.025759 
     17 C           2.948552   -0.130872   -1.575713 C.ar      1 <1>         0.056150 
     18 C           3.491233    0.035892   -0.174229 C.2       1 <1>         0.198636 
     19 C           2.803623    0.951784    0.810509 C.ar      1 <1>         0.055799 
     20 C           1.521565    1.594369    0.429507 C.ar      1 <1>        -0.025441 
     21 C           1.249848    0.511932   -3.226111 C.ar      1 <1>        -0.057128 
     22 C           1.976735   -0.283449   -4.240144 C.ar      1 <1>        -0.059004 
     23 C           3.092597   -0.960571   -3.914003 C.ar      1 <1>        -0.030849 
     24 C           3.655846   -0.865152   -2.541090 C.ar      1 <1>         0.090545 
     25 C           3.365501    1.217469    2.058543 C.ar      1 <1>         0.083995 
     26 C           2.696325    2.176913    2.965551 C.ar      1 <1>        -0.025865 
     27 C           1.572428    2.819294    2.588900 C.ar      1 <1>        -0.019442 
     28 C           0.978326    2.538192    1.260349 C.ar      1 <1>        -0.051767 
     29 O           4.510690   -0.533852    0.181063 O.2       1 <1>        -0.286459 
     30 O           4.555882    0.616728    2.483231 O.3       1 <1>        -0.359104 
     31 O          -2.841306    3.290208   -1.450623 O.2       1 <1>        -0.286459 
     32 O          -3.912456    2.001849   -3.612998 O.3       1 <1>        -0.359093 
     33 O          -4.161884    3.172417    1.200312 O.3       1 <1>        -0.311833 
     34 C          -1.691103   -2.312092   -4.761967 C.2       1 <1>         0.291326 
     35 O          -0.794415   -3.245359   -4.435715 O.3       1 <1>        -0.327489 
     36 O          -2.340490   -2.406304   -5.792292 O.2       1 <1>        -0.259428 
     37 C           0.898779    3.814531    3.537840 C.3       1 <1>         0.069320 
     38 O           0.275660    3.042361    4.578872 O.3       1 <1>        -0.390415 
     39 C          -5.283484    2.779948    0.379150 C.3       1 <1>         0.193669 
     40 O          -6.318860    3.772835    0.481082 O.3       1 <1>        -0.340168 
     41 C          -6.995627    3.793828    1.754318 C.3       1 <1>         0.113017 
     42 C          -7.622566    2.409736    2.075017 C.3       1 <1>         0.111896 
     43 C          -6.579437    1.265616    1.983032 C.3       1 <1>         0.114074 
     44 C          -5.849783    1.349930    0.617841 C.3       1 <1>         0.134509 
     45 O           4.886489   -1.456173   -2.204480 O.3       1 <1>        -0.311833 
     46 C           5.477000   -2.533011   -2.958617 C.3       1 <1>         0.193670 
     47 O           4.730440   -3.764854   -2.854358 O.3       1 <1>        -0.340141 
     48 C           4.725902   -4.363468   -1.534495 C.3       1 <1>         0.113876 
     49 C           6.151451   -4.461397   -0.904473 C.3       1 <1>         0.111923 
     50 C           6.985022   -3.160776   -1.050355 C.3       1 <1>         0.114074 
     51 C           6.955688   -2.724026   -2.529886 C.3       1 <1>         0.134509 
     52 O          -5.673685    1.294442    3.101930 O.3       1 <1>        -0.386401 
     53 C          -6.155710    4.386383    2.916327 C.3       1 <1>         0.073015 
     54 C           3.636448   -3.788262   -0.586437 C.3       1 <1>         0.086340 
     55 O           6.615929   -2.094107   -0.157030 O.3       1 <1>        -0.386401 
     56 O          -6.813394    1.004111   -0.404330 O.3       1 <1>        -0.384091 
     57 O          -8.712373    2.147908    1.168550 O.3       1 <1>        -0.386488 
     58 O           7.616567   -3.741736   -3.316509 O.3       1 <1>        -0.384091 
     59 O           6.874487   -5.552675   -1.510794 O.3       1 <1>        -0.386488 
     60 O           3.788932   -4.377885    0.722380 O.3       1 <1>        -0.304736 
     61 C           3.001413   -3.853285    1.678255 C.2       1 <1>         0.358842 
     62 C           3.168532   -4.297145    3.082120 C.2       1 <1>         0.356395 
     63 O           2.421457   -3.755177    4.052132 O.3       1 <1>        -0.323459 
     64 O           3.993888   -5.159261    3.350164 O.2       1 <1>        -0.253447 
     65 O           2.155977   -3.013134    1.408220 O.2       1 <1>        -0.253246 
     66 O          -7.027028    4.641748    4.036278 O.3       1 <1>        -0.392366 
     67 H          -3.294901    2.349575    3.620671 H         1 <1>         0.064350 
     68 H          -1.528826    0.748197    4.066320 H         1 <1>         0.061846 
     69 H          -0.204446   -0.276775    2.157184 H         1 <1>         0.062069 
     70 H           0.029899   -0.726332   -0.202406 H         1 <1>         0.040672 
     71 H          -0.404156   -1.812970   -2.339467 H         1 <1>         0.062839 
     72 H          -3.337622   -0.175761   -5.101280 H         1 <1>         0.065115 
     73 H           0.374471    2.140370   -1.296027 H         1 <1>         0.040672 
     74 H           0.365560    1.058671   -3.538064 H         1 <1>         0.062069 
     75 H           1.589094   -0.331169   -5.253901 H         1 <1>         0.061846 
     76 H           3.559711   -1.562265   -4.680902 H         1 <1>         0.064350 
     77 H           3.128476    2.358416    3.943895 H         1 <1>         0.064686 
     78 H           0.086438    3.076858    0.963255 H         1 <1>         0.062412 
     79 H           4.951284    0.021399    1.853367 H         1 <1>         0.217340 
     80 H          -3.750988    2.846975   -3.201609 H         1 <1>         0.217340 
     81 H          -0.748757   -3.943127   -5.080786 H         1 <1>         0.220555 
     82 H           1.661538    4.496154    3.950130 H         1 <1>         0.060711 
     83 H           0.146576    4.414248    3.000084 H         1 <1>         0.060711 
     84 H          -0.156557    3.580835    5.235215 H         1 <1>         0.209847 
     85 H          -4.995138    2.833721   -0.675581 H         1 <1>         0.094160 
     86 H          -7.832863    4.497339    1.616617 H         1 <1>         0.064668 
     87 H          -8.052897    2.423400    3.089336 H         1 <1>         0.064673 
     88 H          -7.142287    0.315493    2.023788 H         1 <1>         0.064758 
     89 H          -5.031223    0.611105    0.597514 H         1 <1>         0.067108 
     90 H           5.556571   -2.259272   -4.019469 H         1 <1>         0.094160 
     91 H           4.404343   -5.408034   -1.687128 H         1 <1>         0.064694 
     92 H           6.098088   -4.715720    0.165344 H         1 <1>         0.064673 
     93 H           8.026955   -3.404133   -0.783705 H         1 <1>         0.064758 
     94 H           7.497717   -1.765581   -2.614243 H         1 <1>         0.067108 
     95 H          -5.086570    0.544496    3.122855 H         1 <1>         0.210005 
     96 H          -5.699051    5.327869    2.567027 H         1 <1>         0.058370 
     97 H          -5.353507    3.704817    3.226406 H         1 <1>         0.058370 
     98 H           2.632735   -3.998422   -0.992695 H         1 <1>         0.059274 
     99 H           3.738245   -2.707407   -0.513245 H         1 <1>         0.059274 
    100 H           5.788592   -1.674190   -0.378429 H         1 <1>         0.210005 
    101 H          -6.449389    0.974479   -1.285145 H         1 <1>         0.210111 
    102 H          -8.412461    2.095690    0.263853 H         1 <1>         0.210004 
    103 H           7.685650   -3.524287   -4.241581 H         1 <1>         0.210111 
    104 H           7.040960   -5.398220   -2.438081 H         1 <1>         0.210004 
    105 H           2.630419   -4.108906    4.910451 H         1 <1>         0.220722 
    106 H          -6.577351    5.025509    4.783869 H         1 <1>         0.209508 
@<TRIPOS>BOND
     1    1    2 1    
     2    1    6 2    
     3    1    7 1    
     4    2    3 2    
     5    2   10 1    
     6    3    4 1    
     7    3   33 1    
     8    4    5 2    
     9    4   67 1    
    10    5    6 1    
    11    5   68 1    
    12    6   69 1    
    13    7    8 1    
    14    7   15 1    
    15    7   70 1    
    16    8    9 1    
    17    8   11 2    
    18    9   10 1    
    19    9   14 2    
    20   10   31 2    
    21   11   12 1    
    22   11   71 1    
    23   12   13 2    
    24   12   34 1    
    25   13   14 1    
    26   13   72 1    
    27   14   32 1    
    28   15   16 1    
    29   15   20 1    
    30   15   73 1    
    31   16   17 1    
    32   16   21 2    
    33   17   18 1    
    34   17   24 2    
    35   18   19 1    
    36   18   29 2    
    37   19   20 1    
    38   19   25 2    
    39   20   28 2    
    40   21   22 1    
    41   21   74 1    
    42   22   23 2    
    43   22   75 1    
    44   23   24 1    
    45   23   76 1    
    46   24   45 1    
    47   25   26 1    
    48   25   30 1    
    49   26   27 2    
    50   26   77 1    
    51   27   28 1    
    52   27   37 1    
    53   28   78 1    
    54   30   79 1    
    55   32   80 1    
    56   33   39 1    
    57   34   35 1    
    58   34   36 2    
    59   35   81 1    
    60   37   38 1    
    61   37   82 1    
    62   37   83 1    
    63   38   84 1    
    64   39   40 1    
    65   39   44 1    
    66   39   85 1    
    67   40   41 1    
    68   41   42 1    
    69   41   53 1    
    70   41   86 1    
    71   42   43 1    
    72   42   57 1    
    73   42   87 1    
    74   43   44 1    
    75   43   52 1    
    76   43   88 1    
    77   44   56 1    
    78   44   89 1    
    79   45   46 1    
    80   46   47 1    
    81   46   51 1    
    82   46   90 1    
    83   47   48 1    
    84   48   49 1    
    85   48   54 1    
    86   48   91 1    
    87   49   50 1    
    88   49   59 1    
    89   49   92 1    
    90   50   51 1    
    91   50   55 1    
    92   50   93 1    
    93   51   58 1    
    94   51   94 1    
    95   52   95 1    
    96   53   66 1    
    97   53   96 1    
    98   53   97 1    
    99   54   60 1    
   100   54   98 1    
   101   54   99 1    
   102   55  100 1    
   103   56  101 1    
   104   57  102 1    
   105   58  103 1    
   106   59  104 1    
   107   60   61 1    
   108   61   62 1    
   109   61   65 2    
   110   62   63 1    
   111   62   64 2    
   112   63  105 1    
   113   66  106 1    
@<TRIPOS>SUBSTRUCTURE
     1 ****        1 TEMP              0 ****  ****    0 ROOT 
@<TRIPOS>NORMAL
@<TRIPOS>FF_PBC
FORCE_FIELD_SETUP_FEATURE Force Field Setup information
v1.0  0 0.000000 0.000000 0.000000 0.000000 0.000000 0.000000 NONE 0 0 0 0 1 0 0 0 0 0 0 0 0
