@<TRIPOS>MOLECULE
MOL004492
   99   101     1     1     0
SMALL
GASTEIGER


@<TRIPOS>ATOM
      1 C          -3.147222    0.963768   -5.056659 C.3       1 <1>        -0.017799 
      2 C          -3.234906   -0.596499   -4.966681 C.3       1 <1>         0.058941 
      3 C          -1.915505   -1.319188   -4.535371 C.3       1 <1>         0.006057 
      4 C          -1.472658   -0.914226   -3.081252 C.3       1 <1>         0.091772 
      5 C          -1.677629    1.242886   -3.142461 C.2       1 <1>        -0.033793 
      6 C          -2.970325    1.781149   -3.729586 C.3       1 <1>        -0.008793 
      7 O           0.603667   -1.174937   -2.449726 O.3       1 <1>        -0.357725 
      8 C           1.378933    0.886070   -2.160826 C.3       1 <1>         0.099411 
      9 C          -0.363210    2.080434   -2.686366 C.2       1 <1>        -0.049065 
     10 C           2.752297    2.803359   -3.134949 C.3       1 <1>        -0.040764 
     11 C           2.634715    1.314271   -2.882724 C.2       1 <1>        -0.040427 
     12 C           3.561955    0.419605   -3.254771 C.2       1 <1>        -0.060037 
     13 C           4.777093    0.789155   -3.993520 C.2       1 <1>        -0.061469 
     14 C           5.074218    0.354360   -5.225650 C.2       1 <1>        -0.058837 
     15 C           0.084397    0.280560   -3.577346 C.2       1 <1>        -0.058837 
     16 C          -0.496484    0.249081   -1.732060 C.2       1 <1>        -0.050445 
     17 C           0.065549   -0.432926   -0.438668 C.2       1 <1>        -0.058829 
     18 C           0.493443    0.210613    0.663004 C.2       1 <1>        -0.061262 
     19 C           0.942013   -0.439634    1.910797 C.2       1 <1>        -0.058838 
     20 C           0.822971    0.171858    3.097481 C.2       1 <1>        -0.050722 
     21 C           1.187779   -0.484612    4.363367 C.2       1 <1>        -0.062184 
     22 C          -0.483615   -3.606574    5.734923 C.3       1 <1>        -0.043132 
     23 C          -0.506065   -2.560452    6.828894 C.2       1 <1>        -0.066807 
     24 C           0.337784   -1.323481    6.591646 C.3       1 <1>         0.003498 
     25 C           0.180091   -0.814482    5.180218 C.2       1 <1>        -0.076165 
     26 C          -1.229356   -2.737974    7.945453 C.2       1 <1>        -0.056326 
     27 C          -1.277939   -1.760179    9.090724 C.3       1 <1>         0.074127 
     28 C          -0.127606   -0.727052    8.996092 C.3       1 <1>        -0.017246 
     29 C          -0.010079   -0.145041    7.560184 C.3       1 <1>        -0.022318 
     30 C          -2.760688    3.283432   -4.090784 C.3       1 <1>        -0.055921 
     31 C          -4.258589    1.690192   -2.856453 C.3       1 <1>        -0.055921 
     32 O          -3.578247   -1.037254   -6.295110 O.3       1 <1>        -0.391652 
     33 C          -2.354808   -1.791746   -2.121761 C.3       1 <1>        -0.031784 
     34 C          -1.686444    0.865606   -0.816110 C.3       1 <1>        -0.039709 
     35 C           0.260345    1.571744    3.220546 C.3       1 <1>        -0.039718 
     36 O          -1.163805   -2.508106   10.314496 O.3       1 <1>        -0.387742 
     37 C           1.132365    0.916275    7.542839 C.3       1 <1>        -0.058894 
     38 C          -1.346016    0.563895    7.166080 C.3       1 <1>        -0.058894 
     39 C           5.083658   -1.484315   -7.001505 C.3       1 <1>        -0.039709 
     40 C           4.293631   -0.555905   -6.101974 C.2       1 <1>        -0.050446 
     41 C           2.952587   -0.618627   -6.151252 C.2       1 <1>        -0.058837 
     42 C           1.999664    0.207203   -5.379266 C.2       1 <1>        -0.061502 
     43 C           1.124276   -0.351978   -4.521514 C.2       1 <1>        -0.061502 
     44 H          -4.075078    1.313591   -5.539233 H         1 <1>         0.029832 
     45 H          -2.323167    1.193773   -5.751056 H         1 <1>         0.029832 
     46 H          -4.079896   -0.870723   -4.317673 H         1 <1>         0.059436 
     47 H          -1.188657   -1.088318   -5.323371 H         1 <1>         0.032109 
     48 H          -2.052304   -2.410225   -4.599039 H         1 <1>         0.032109 
     49 H           1.795392    1.118237   -1.171415 H         1 <1>         0.068820 
     50 H          -0.318175    3.168034   -2.658345 H         1 <1>         0.060147 
     51 H           3.706215    3.104012   -3.588669 H         1 <1>         0.027536 
     52 H           1.947373    3.127641   -3.809130 H         1 <1>         0.027536 
     53 H           2.650644    3.344465   -2.181187 H         1 <1>         0.027536 
     54 H           3.418141   -0.638136   -3.033203 H         1 <1>         0.061798 
     55 H           5.465313    1.461915   -3.478214 H         1 <1>         0.061766 
     56 H           6.018754    0.708366   -5.642749 H         1 <1>         0.062020 
     57 H          -0.155182    0.755681   -4.563801 H         1 <1>         0.062020 
     58 H           0.117957   -1.519851   -0.312028 H         1 <1>         0.062020 
     59 H           0.478576    1.299919    0.646402 H         1 <1>         0.061775 
     60 H           1.350788   -1.449940    1.867858 H         1 <1>         0.062020 
     61 H           2.236272   -0.644272    4.615628 H         1 <1>         0.061728 
     62 H           0.555718   -3.803457    5.431801 H         1 <1>         0.027455 
     63 H          -0.926095   -4.561204    6.058323 H         1 <1>         0.027455 
     64 H          -1.046396   -3.249544    4.859959 H         1 <1>         0.027455 
     65 H           1.379424   -1.640776    6.762457 H         1 <1>         0.039327 
     66 H          -0.837292   -0.680170    4.810361 H         1 <1>         0.057825 
     67 H          -1.835702   -3.635537    8.068123 H         1 <1>         0.059712 
     68 H          -2.263944   -1.262978    9.070373 H         1 <1>         0.063770 
     69 H           0.813563   -1.235162    9.260724 H         1 <1>         0.029865 
     70 H          -0.296817    0.076183    9.731467 H         1 <1>         0.029865 
     71 H          -3.627279    3.677065   -4.644218 H         1 <1>         0.023805 
     72 H          -2.640570    3.886299   -3.177278 H         1 <1>         0.023805 
     73 H          -1.867364    3.420570   -4.720426 H         1 <1>         0.023805 
     74 H          -4.149250    2.288860   -1.939070 H         1 <1>         0.023805 
     75 H          -4.506962    0.657396   -2.580319 H         1 <1>         0.023805 
     76 H          -5.119785    2.092798   -3.410554 H         1 <1>         0.023805 
     77 H          -3.730143   -1.974787   -6.368553 H         1 <1>         0.209778 
     78 H          -3.425921   -1.594297   -2.248664 H         1 <1>         0.026055 
     79 H          -2.136108   -1.680418   -1.054755 H         1 <1>         0.026055 
     80 H          -2.174261   -2.855982   -2.333771 H         1 <1>         0.026055 
     81 H          -1.863368    0.538575    0.227991 H         1 <1>         0.027753 
     82 H          -1.644525    1.961244   -0.695191 H         1 <1>         0.027753 
     83 H          -2.686694    0.603930   -1.165518 H         1 <1>         0.027753 
     84 H           0.956710    2.297058    2.775099 H         1 <1>         0.027753 
     85 H           0.121041    1.855517    4.272630 H         1 <1>         0.027753 
     86 H          -0.720075    1.642957    2.725650 H         1 <1>         0.027753 
     87 H          -1.213548   -1.958565   11.090797 H         1 <1>         0.210207 
     88 H           0.888751    1.753046    8.215278 H         1 <1>         0.023527 
     89 H           2.085893    0.476819    7.873066 H         1 <1>         0.023527 
     90 H           1.279006    1.325372    6.532523 H         1 <1>         0.023527 
     91 H          -1.688403    1.222365    7.978274 H         1 <1>         0.023527 
     92 H          -2.141650   -0.164423    6.949122 H         1 <1>         0.023527 
     93 H          -1.221124    1.194553    6.274055 H         1 <1>         0.023527 
     94 H           6.148227   -1.515561   -6.722314 H         1 <1>         0.027753 
     95 H           4.694914   -2.513008   -6.940569 H         1 <1>         0.027753 
     96 H           5.007811   -1.138440   -8.043450 H         1 <1>         0.027753 
     97 H           2.488608   -1.350244   -6.813573 H         1 <1>         0.062020 
     98 H           2.053339    1.286789   -5.518571 H         1 <1>         0.061766 
     99 H           1.214165   -1.443019   -4.555632 H         1 <1>         0.061766 
@<TRIPOS>BOND
     1    1    2 1    
     2    6    1 1    
     3    1   44 1    
     4    1   45 1    
     5    3    2 1    
     6    2   32 1    
     7    2   46 1    
     8    4    3 1    
     9    3   47 1    
    10    3   48 1    
    11    5    4 1    
    12    7    4 1    
    13    4   33 1    
    14    5    6 1    
    15    9    5 2    
    16    6   30 1    
    17    6   31 1    
    18    8    7 1    
    19    8    9 1    
    20   11    8 1    
    21    8   49 1    
    22    9   50 1    
    23   11   10 1    
    24   10   51 1    
    25   10   52 1    
    26   10   53 1    
    27   12   11 2    
    28   13   12 1    
    29   12   54 1    
    30   14   13 2    
    31   13   55 1    
    32   40   14 1    
    33   14   56 1    
    34   15   16 2    
    35   43   15 1    
    36   15   57 1    
    37   16   17 1    
    38   16   34 1    
    39   17   18 2    
    40   17   58 1    
    41   18   19 1    
    42   18   59 1    
    43   19   20 2    
    44   19   60 1    
    45   20   21 1    
    46   20   35 1    
    47   21   25 2    
    48   21   61 1    
    49   23   22 1    
    50   22   62 1    
    51   22   63 1    
    52   22   64 1    
    53   24   23 1    
    54   23   26 2    
    55   25   24 1    
    56   24   29 1    
    57   24   65 1    
    58   25   66 1    
    59   26   27 1    
    60   26   67 1    
    61   28   27 1    
    62   27   36 1    
    63   27   68 1    
    64   29   28 1    
    65   28   69 1    
    66   28   70 1    
    67   29   37 1    
    68   29   38 1    
    69   30   71 1    
    70   30   72 1    
    71   30   73 1    
    72   31   74 1    
    73   31   75 1    
    74   31   76 1    
    75   32   77 1    
    76   33   78 1    
    77   33   79 1    
    78   33   80 1    
    79   34   81 1    
    80   34   82 1    
    81   34   83 1    
    82   35   84 1    
    83   35   85 1    
    84   35   86 1    
    85   36   87 1    
    86   37   88 1    
    87   37   89 1    
    88   37   90 1    
    89   38   91 1    
    90   38   92 1    
    91   38   93 1    
    92   40   39 1    
    93   39   94 1    
    94   39   95 1    
    95   39   96 1    
    96   41   40 2    
    97   42   41 1    
    98   41   97 1    
    99   42   43 2    
   100   42   98 1    
   101   43   99 1    
@<TRIPOS>SUBSTRUCTURE
     1 ****        1 TEMP              0 ****  ****    0 ROOT 
@<TRIPOS>NORMAL
@<TRIPOS>FF_PBC
FORCE_FIELD_SETUP_FEATURE Force Field Setup information
v1.0  0 0.000000 0.000000 0.000000 0.000000 0.000000 0.000000 NONE 0 0 0 0 1 0 0 0 0 0 0 0 0
