@<TRIPOS>MOLECULE
MOL001281
   61    60     1     1     0
SMALL
GASTEIGER


@<TRIPOS>ATOM
      1 C         -10.138777    5.140820   -4.247019 C.3       1 <1>        -0.065276 
      2 C          -8.594317    5.194137   -4.114146 C.3       1 <1>        -0.055911 
      3 C          -8.064043    4.028615   -3.234971 C.3       1 <1>        -0.053306 
      4 C          -6.519693    4.088941   -3.080267 C.3       1 <1>        -0.053065 
      5 C          -5.990997    2.909499   -2.218121 C.3       1 <1>        -0.053057 
      6 C          -4.448479    2.978236   -2.049336 C.3       1 <1>        -0.053057 
      7 C          -3.912798    1.781528   -1.216033 C.3       1 <1>        -0.053057 
      8 C          -2.369998    1.857222   -1.051011 C.3       1 <1>        -0.053057 
      9 C          -1.819855    0.640588   -0.257206 C.3       1 <1>        -0.053057 
     10 C          -0.275006    0.714716   -0.108188 C.3       1 <1>        -0.053057 
     11 C           0.282311   -0.517913    0.655473 C.3       1 <1>        -0.053057 
     12 C           1.828712   -0.450821    0.788722 C.3       1 <1>        -0.053045 
     13 C           2.390160   -1.697045    1.527320 C.3       1 <1>        -0.052596 
     14 C           3.938952   -1.639219    1.633736 C.3       1 <1>        -0.044055 
     15 C           4.511539   -2.899339    2.338312 C.3       1 <1>         0.033200 
     16 C           6.016192   -2.878100    2.414102 C.2       1 <1>         0.262238 
     17 O           6.577552   -4.028904    2.813915 O.3       1 <1>        -0.312540 
     18 C           8.019137   -3.984193    2.870418 C.3       1 <1>         0.085113 
     19 C           8.529172   -5.376754    3.326178 C.3       1 <1>         0.102008 
     20 C          10.078906   -5.422842    3.390743 C.3       1 <1>         0.072312 
     21 O          10.514624   -6.776692    3.623761 O.3       1 <1>        -0.392387 
     22 O           7.993958   -5.676214    4.629991 O.3       1 <1>        -0.387224 
     23 O           6.663700   -1.882103    2.130276 O.2       1 <1>        -0.264974 
     24 H         -10.494896    5.975274   -4.871881 H         1 <1>         0.022978 
     25 H         -10.451812    4.194240   -4.714884 H         1 <1>         0.022978 
     26 H         -10.612302    5.218982   -3.255774 H         1 <1>         0.022978 
     27 H          -8.304539    6.158330   -3.664108 H         1 <1>         0.026265 
     28 H          -8.143401    5.133638   -5.118764 H         1 <1>         0.026265 
     29 H          -8.348525    3.068750   -3.696163 H         1 <1>         0.026520 
     30 H          -8.531070    4.083296   -2.237987 H         1 <1>         0.026520 
     31 H          -6.238711    5.043436   -2.605913 H         1 <1>         0.026528 
     32 H          -6.052007    4.049446   -4.077768 H         1 <1>         0.026528 
     33 H          -6.263427    1.957180   -2.702053 H         1 <1>         0.026528 
     34 H          -6.467548    2.940130   -1.224616 H         1 <1>         0.026528 
     35 H          -4.178715    3.922195   -1.547918 H         1 <1>         0.026528 
     36 H          -3.974433    2.968464   -3.044633 H         1 <1>         0.026528 
     37 H          -4.179748    0.839416   -1.722306 H         1 <1>         0.026528 
     38 H          -4.386941    1.784538   -0.220841 H         1 <1>         0.026528 
     39 H          -2.104575    2.787866   -0.523037 H         1 <1>         0.026528 
     40 H          -1.899809    1.880662   -2.047673 H         1 <1>         0.026528 
     41 H          -2.089348   -0.288367   -0.786038 H         1 <1>         0.026528 
     42 H          -2.283077    0.614726    0.742863 H         1 <1>         0.026528 
     43 H          -0.004033    1.634890    0.435267 H         1 <1>         0.026528 
     44 H           0.184059    0.758348   -1.109610 H         1 <1>         0.026528 
     45 H           0.004604   -1.436049    0.112128 H         1 <1>         0.026528 
     46 H          -0.169698   -0.561537    1.659909 H         1 <1>         0.026528 
     47 H           2.109057    0.460320    1.342522 H         1 <1>         0.026529 
     48 H           2.276271   -0.393766   -0.217216 H         1 <1>         0.026529 
     49 H           2.097507   -2.606469    0.976883 H         1 <1>         0.026540 
     50 H           1.955497   -1.751363    2.539116 H         1 <1>         0.026540 
     51 H           4.234645   -0.739222    2.198399 H         1 <1>         0.027004 
     52 H           4.372236   -1.570618    0.621891 H         1 <1>         0.027004 
     53 H           4.207562   -3.803639    1.787804 H         1 <1>         0.036606 
     54 H           4.117327   -2.965730    3.364476 H         1 <1>         0.036606 
     55 H           8.354060   -3.227666    3.599601 H         1 <1>         0.059240 
     56 H           8.436883   -3.744574    1.877964 H         1 <1>         0.059240 
     57 H           8.194169   -6.136143    2.597243 H         1 <1>         0.063932 
     58 H          10.418972   -4.760377    4.204640 H         1 <1>         0.058350 
     59 H          10.503721   -5.064705    2.437584 H         1 <1>         0.058350 
     60 H          11.460850   -6.862763    3.690831 H         1 <1>         0.209508 
     61 H           7.041243   -5.664305    4.634409 H         1 <1>         0.209975 
@<TRIPOS>BOND
     1    1    2 1    
     2    1   24 1    
     3    1   25 1    
     4    1   26 1    
     5    2    3 1    
     6    2   27 1    
     7    2   28 1    
     8    3    4 1    
     9    3   29 1    
    10    3   30 1    
    11    4    5 1    
    12    4   31 1    
    13    4   32 1    
    14    5    6 1    
    15    5   33 1    
    16    5   34 1    
    17    6    7 1    
    18    6   35 1    
    19    6   36 1    
    20    7    8 1    
    21    7   37 1    
    22    7   38 1    
    23    8    9 1    
    24    8   39 1    
    25    8   40 1    
    26    9   10 1    
    27    9   41 1    
    28    9   42 1    
    29   10   11 1    
    30   10   43 1    
    31   10   44 1    
    32   11   12 1    
    33   11   45 1    
    34   11   46 1    
    35   12   13 1    
    36   12   47 1    
    37   12   48 1    
    38   13   14 1    
    39   13   49 1    
    40   13   50 1    
    41   14   15 1    
    42   14   51 1    
    43   14   52 1    
    44   15   16 1    
    45   15   53 1    
    46   15   54 1    
    47   16   17 1    
    48   16   23 2    
    49   17   18 1    
    50   18   19 1    
    51   18   55 1    
    52   18   56 1    
    53   19   20 1    
    54   19   22 1    
    55   19   57 1    
    56   20   21 1    
    57   20   58 1    
    58   20   59 1    
    59   21   60 1    
    60   22   61 1    
@<TRIPOS>SUBSTRUCTURE
     1 ****        1 TEMP              0 ****  ****    0 ROOT 
@<TRIPOS>NORMAL
@<TRIPOS>FF_PBC
FORCE_FIELD_SETUP_FEATURE Force Field Setup information
v1.0  0 0.000000 0.000000 0.000000 0.000000 0.000000 0.000000 NONE 0 0 0 0 1 0 0 0 0 0 0 0 0
