@<TRIPOS>MOLECULE
MOL006941
   65    64     1     1     0
SMALL
GASTEIGER


@<TRIPOS>ATOM
      1 C          -0.903597    0.374981   -0.767463 C.3       1 <1>        -0.053057 
      2 C           0.439273    1.145474   -0.894214 C.3       1 <1>        -0.053057 
      3 C          -2.118610    1.341193   -0.829234 C.3       1 <1>        -0.053057 
      4 C           1.654886    0.181451   -0.818830 C.3       1 <1>        -0.053057 
      5 C          -3.461781    0.573666   -0.684366 C.3       1 <1>        -0.053057 
      6 C           2.998196    0.954780   -0.921684 C.3       1 <1>        -0.053057 
      7 C          -4.674371    1.545171   -0.721328 C.3       1 <1>        -0.053057 
      8 C           4.213741   -0.008543   -0.835202 C.3       1 <1>        -0.053057 
      9 C          -6.050424    0.818279   -0.723160 C.3       1 <1>        -0.053048 
     10 C           5.557738    0.765577   -0.921194 C.3       1 <1>        -0.053057 
     11 C          -6.304417   -0.027698    0.556403 C.3       1 <1>        -0.052815 
     12 C           6.772407   -0.198154   -0.828586 C.3       1 <1>        -0.053057 
     13 C          -7.755675   -0.579341    0.594339 C.3       1 <1>        -0.050468 
     14 C           8.117011    0.575525   -0.908294 C.3       1 <1>        -0.053065 
     15 C          -8.036970   -1.601789    1.741129 C.3       1 <1>        -0.044128 
     16 C           9.330811   -0.388927   -0.811877 C.3       1 <1>        -0.053306 
     17 C          -7.775870   -1.026179    3.171161 C.3       1 <1>        -0.053312 
     18 C          10.675733    0.383749   -0.890726 C.3       1 <1>        -0.055911 
     19 C          -6.360360   -1.349214    3.727933 C.3       1 <1>        -0.065034 
     20 C          11.885997   -0.580871   -0.790294 C.3       1 <1>        -0.065276 
     21 H          -0.981079   -0.361795   -1.583973 H         1 <1>         0.026528 
     22 H          -0.919879   -0.169356    0.191146 H         1 <1>         0.026528 
     23 H           0.511180    1.885068   -0.079809 H         1 <1>         0.026528 
     24 H           0.461275    1.686319   -1.854664 H         1 <1>         0.026528 
     25 H          -2.036057    2.082840   -0.017571 H         1 <1>         0.026528 
     26 H          -2.104680    1.879590   -1.791229 H         1 <1>         0.026528 
     27 H           1.590976   -0.551318   -1.640043 H         1 <1>         0.026528 
     28 H           1.624784   -0.367509    0.136751 H         1 <1>         0.026528 
     29 H          -3.554141   -0.159393   -1.502329 H         1 <1>         0.026528 
     30 H          -3.446026    0.029442    0.272836 H         1 <1>         0.026528 
     31 H           3.058219    1.689648   -0.101990 H         1 <1>         0.026528 
     32 H           3.032661    1.501440   -1.878505 H         1 <1>         0.026528 
     33 H          -4.621075    2.229626    0.141415 H         1 <1>         0.026528 
     34 H          -4.609803    2.153657   -1.639206 H         1 <1>         0.026528 
     35 H           4.159297   -0.738701   -1.659490 H         1 <1>         0.026528 
     36 H           4.173303   -0.560708    0.118223 H         1 <1>         0.026528 
     37 H          -6.839945    1.585023   -0.800352 H         1 <1>         0.026529 
     38 H          -6.120165    0.170955   -1.612995 H         1 <1>         0.026529 
     39 H           5.610144    1.496509   -0.097520 H         1 <1>         0.026528 
     40 H           5.600750    1.316617   -1.875077 H         1 <1>         0.026528 
     41 H          -5.608967   -0.880694    0.583477 H         1 <1>         0.026537 
     42 H          -6.129619    0.615698    1.432584 H         1 <1>         0.026537 
     43 H           6.722123   -0.927846   -1.653482 H         1 <1>         0.026528 
     44 H           6.726951   -0.750740    0.124329 H         1 <1>         0.026528 
     45 H          -8.456268    0.267441    0.679966 H         1 <1>         0.026785 
     46 H          -7.950097   -1.079284   -0.369131 H         1 <1>         0.026785 
     47 H           8.166707    1.306072   -0.084044 H         1 <1>         0.026528 
     48 H           8.164456    1.127018   -1.861768 H         1 <1>         0.026528 
     49 H          -7.397683   -2.488403    1.587501 H         1 <1>         0.029804 
     50 C          -9.512111   -2.086075    1.619518 C.3       1 <1>        -0.062423 
     51 H           9.282548   -1.119826   -1.635893 H         1 <1>         0.026520 
     52 H           9.283902   -0.940181    0.141785 H         1 <1>         0.026520 
     53 H          -7.950769    0.061662    3.177023 H         1 <1>         0.026521 
     54 H          -8.483964   -1.469871    3.890980 H         1 <1>         0.026521 
     55 H          10.729980    1.116233   -0.067991 H         1 <1>         0.026265 
     56 H          10.730597    0.932959   -1.845566 H         1 <1>         0.026265 
     57 H          -6.245674   -0.910408    4.732033 H         1 <1>         0.022986 
     58 H          -6.226866   -2.439257    3.813025 H         1 <1>         0.022986 
     59 H          -5.556135   -0.955800    3.093358 H         1 <1>         0.022986 
     60 H          12.828662   -0.014085   -0.848994 H         1 <1>         0.022978 
     61 H          11.864618   -1.311149   -1.614178 H         1 <1>         0.022978 
     62 H          11.864316   -1.126016    0.166229 H         1 <1>         0.022978 
     63 H          -9.724405   -2.880204    2.352801 H         1 <1>         0.023242 
     64 H          -9.711207   -2.495210    0.616596 H         1 <1>         0.023242 
     65 H         -10.204452   -1.249117    1.799812 H         1 <1>         0.023242 
@<TRIPOS>BOND
     1    1    2 1    
     2    1    3 1    
     3    1   21 1    
     4    1   22 1    
     5    2    4 1    
     6    2   23 1    
     7    2   24 1    
     8    3    5 1    
     9    3   25 1    
    10    3   26 1    
    11    4    6 1    
    12    4   27 1    
    13    4   28 1    
    14    5    7 1    
    15    5   29 1    
    16    5   30 1    
    17    6    8 1    
    18    6   31 1    
    19    6   32 1    
    20    7    9 1    
    21    7   33 1    
    22    7   34 1    
    23    8   10 1    
    24    8   35 1    
    25    8   36 1    
    26    9   11 1    
    27    9   37 1    
    28    9   38 1    
    29   10   12 1    
    30   10   39 1    
    31   10   40 1    
    32   11   13 1    
    33   11   41 1    
    34   11   42 1    
    35   12   14 1    
    36   12   43 1    
    37   12   44 1    
    38   13   15 1    
    39   13   45 1    
    40   13   46 1    
    41   14   16 1    
    42   14   47 1    
    43   14   48 1    
    44   15   17 1    
    45   15   49 1    
    46   15   50 1    
    47   16   18 1    
    48   16   51 1    
    49   16   52 1    
    50   17   19 1    
    51   17   53 1    
    52   17   54 1    
    53   18   20 1    
    54   18   55 1    
    55   18   56 1    
    56   19   57 1    
    57   19   58 1    
    58   19   59 1    
    59   20   60 1    
    60   20   61 1    
    61   20   62 1    
    62   50   63 1    
    63   50   64 1    
    64   50   65 1    
@<TRIPOS>SUBSTRUCTURE
     1 ****        1 TEMP              0 ****  ****    0 ROOT 
@<TRIPOS>NORMAL
@<TRIPOS>FF_PBC
FORCE_FIELD_SETUP_FEATURE Force Field Setup information
v1.0  0 0.000000 0.000000 0.000000 0.000000 0.000000 0.000000 NONE 0 0 0 0 1 0 0 0 0 0 0 0 0
