@<TRIPOS>MOLECULE
MOL008053
   19    19     1     1     0
SMALL
GASTEIGER


@<TRIPOS>ATOM
      1 C          -1.198118    0.021407    0.000503 C.ar      1 <1>         0.025879 
      2 C          -1.900112    1.238016    0.000399 C.ar      1 <1>        -0.046299 
      3 C          -1.939478   -1.262239    0.000407 C.ar      1 <1>        -0.046299 
      4 C          -3.382616    1.238431    0.000073 C.ar      1 <1>        -0.060603 
      5 C          -3.344417   -1.262197    0.000084 C.ar      1 <1>        -0.060603 
      6 C          -4.085240    0.021923   -0.000111 C.ar      1 <1>        -0.061686 
      7 C           0.242364    0.015919    0.000625 C.1       1 <1>        -0.052473 
      8 C           1.445903    0.011479    0.000550 C.1       1 <1>        -0.009573 
      9 C           5.486385   -0.001577   -0.000762 C.3       1 <1>        -0.001628 
     10 C           2.825158    0.006638    0.000260 C.1       1 <1>        -0.014770 
     11 C           4.028874    0.002836   -0.000145 C.1       1 <1>        -0.091781 
     12 H          -1.359875    2.179099    0.000520 H         1 <1>         0.062973 
     13 H          -1.393944   -2.200345    0.000578 H         1 <1>         0.062973 
     14 H          -3.922371    2.180107   -0.000044 H         1 <1>         0.061794 
     15 H          -3.889855   -2.200603   -0.000018 H         1 <1>         0.061794 
     16 H          -5.170571    0.019092   -0.000394 H         1 <1>         0.061759 
     17 H           5.850555   -0.588124   -0.857021 H         1 <1>         0.036181 
     18 H           5.855560    1.031500   -0.079967 H         1 <1>         0.036181 
     19 H           5.851797   -0.451263    0.934164 H         1 <1>         0.036181 
@<TRIPOS>BOND
     1    1    2 2    
     2    1    3 1    
     3    7    1 1    
     4    2    4 1    
     5    2   12 1    
     6    3    5 2    
     7    3   13 1    
     8    4    6 2    
     9    4   14 1    
    10    5    6 1    
    11    5   15 1    
    12    6   16 1    
    13    8    7 3    
    14   10    8 1    
    15   11    9 1    
    16    9   17 1    
    17    9   18 1    
    18    9   19 1    
    19   10   11 3    
@<TRIPOS>SUBSTRUCTURE
     1 ****        1 TEMP              0 ****  ****    0 ROOT 
@<TRIPOS>NORMAL
@<TRIPOS>FF_PBC
FORCE_FIELD_SETUP_FEATURE Force Field Setup information
v1.0  0 0.000000 0.000000 0.000000 0.000000 0.000000 0.000000 NONE 0 0 0 0 1 0 0 0 0 0 0 0 0
