@<TRIPOS>MOLECULE
MOL002693
   72    76     1     1     0
SMALL
GASTEIGER


@<TRIPOS>ATOM
      1 C          -1.033566   -0.622105   -1.606752 C.2       1 <1>         0.157590 
      2 C          -2.082812   -0.554169   -2.454107 C.2       1 <1>         0.123961 
      3 C          -1.132191   -1.453118   -0.388930 C.2       1 <1>         0.223405 
      4 O           0.135567    0.026591   -1.819700 O.3       1 <1>        -0.306082 
      5 C          -2.047506    0.121588   -3.806024 C.ar      1 <1>         0.008305 
      6 O          -3.271109   -1.123109   -2.177210 O.3       1 <1>        -0.305122 
      7 C          -2.451748   -2.090807   -0.042881 C.ar      1 <1>         0.084562 
      8 O          -0.162221   -1.631970    0.330710 O.2       1 <1>        -0.284261 
      9 C           0.132255    1.404764   -2.267406 C.3       1 <1>         0.193914 
     10 C          -1.026646   -0.277646   -4.804945 C.ar      1 <1>        -0.049598 
     11 C          -2.992451    1.114023   -4.131877 C.ar      1 <1>        -0.049598 
     12 C          -3.522172   -1.871001   -1.027879 C.ar      1 <1>         0.099001 
     13 C          -2.682748   -2.850447    1.121922 C.ar      1 <1>         0.088401 
     14 O           1.478475    1.911611   -2.123135 O.3       1 <1>        -0.340154 
     15 C          -0.894639    2.364402   -1.594638 C.3       1 <1>         0.134513 
     16 C          -0.990102    0.351295   -6.062168 C.ar      1 <1>        -0.031302 
     17 C          -2.951787    1.777817   -5.456815 C.ar      1 <1>        -0.031302 
     18 C          -4.792801   -2.425129   -0.812606 C.ar      1 <1>        -0.000529 
     19 C          -4.034777   -3.425632    1.345447 C.ar      1 <1>        -0.001302 
     20 O          -1.650122   -3.053226    2.040217 O.3       1 <1>        -0.358954 
     21 C           1.906053    2.176318   -0.764823 C.3       1 <1>         0.113377 
     22 C          -0.514107    2.630835   -0.115099 C.3       1 <1>         0.114074 
     23 O          -0.957821    3.579724   -2.373929 O.3       1 <1>        -0.384091 
     24 C          -1.969128    1.408772   -6.404697 C.ar      1 <1>         0.072619 
     25 C          -5.058933   -3.230269    0.407039 C.ar      1 <1>         0.077519 
     26 C           0.942186    3.160964   -0.044104 C.3       1 <1>         0.111906 
     27 C           2.230163    0.901359    0.064452 C.3       1 <1>         0.079556 
     28 O          -0.715274    1.420265    0.640658 O.3       1 <1>        -0.386401 
     29 O          -1.898541    2.018021   -7.660493 O.3       1 <1>        -0.359832 
     30 O          -6.314876   -3.798012    0.640728 O.3       1 <1>        -0.359667 
     31 O           1.050171    4.460769   -0.665228 O.3       1 <1>        -0.386488 
     32 O           2.574205    1.263843    1.423432 O.3       1 <1>        -0.346051 
     33 C           2.634496    0.154989    2.354734 C.3       1 <1>         0.187899 
     34 C           3.884420   -0.742540    2.159575 C.3       1 <1>         0.134110 
     35 O           2.708314    0.827004    3.627034 O.3       1 <1>        -0.343081 
     36 C           3.971003   -1.775746    3.316242 C.3       1 <1>         0.113972 
     37 O           3.830539   -1.436436    0.895186 O.3       1 <1>        -0.384104 
     38 C           2.758865   -0.052119    4.769801 C.3       1 <1>         0.087307 
     39 C           3.961153   -1.037671    4.681269 C.3       1 <1>         0.109478 
     40 O           2.894644   -2.728264    3.193024 O.3       1 <1>        -0.386402 
     41 C           1.400933   -0.750612    5.063548 C.3       1 <1>        -0.036060 
     42 O           5.217039   -0.336388    4.792253 O.3       1 <1>        -0.386579 
     43 H          -0.003945    1.474864   -3.352237 H         1 <1>         0.094163 
     44 H          -0.308328   -1.055667   -4.561593 H         1 <1>         0.062504 
     45 H          -3.751918    1.397698   -3.410974 H         1 <1>         0.062504 
     46 H          -1.898336    1.913163   -1.604972 H         1 <1>         0.067108 
     47 H          -0.240909    0.065398   -6.792836 H         1 <1>         0.064339 
     48 H          -3.680039    2.548408   -5.686329 H         1 <1>         0.064339 
     49 H          -5.572469   -2.258213   -1.547316 H         1 <1>         0.066947 
     50 H          -4.242677   -4.005472    2.236359 H         1 <1>         0.066923 
     51 H          -1.893865   -3.583504    2.788854 H         1 <1>         0.217342 
     52 H           2.867845    2.709375   -0.855164 H         1 <1>         0.064677 
     53 H          -1.194916    3.395934    0.297819 H         1 <1>         0.064758 
     54 H          -1.570111    4.226264   -2.039230 H         1 <1>         0.210111 
     55 H           1.242761    3.275006    1.012156 H         1 <1>         0.064673 
     56 H           1.355647    0.249560    0.099435 H         1 <1>         0.058744 
     57 H           3.041335    0.361328   -0.449270 H         1 <1>         0.058744 
     58 H          -0.489686    1.506252    1.563277 H         1 <1>         0.210005 
     59 H          -2.545046    2.699654   -7.799962 H         1 <1>         0.217313 
     60 H          -6.929491   -3.682035   -0.075425 H         1 <1>         0.217316 
     61 H           0.508316    5.133591   -0.264487 H         1 <1>         0.210004 
     62 H           1.715560   -0.451698    2.298957 H         1 <1>         0.093739 
     63 H           4.759475   -0.069393    2.187434 H         1 <1>         0.067095 
     64 H           4.929959   -2.317531    3.219281 H         1 <1>         0.064757 
     65 H           4.595278   -1.975792    0.720748 H         1 <1>         0.210110 
     66 H           2.934136    0.620986    5.625810 H         1 <1>         0.062075 
     67 H           3.898960   -1.782101    5.493348 H         1 <1>         0.064584 
     68 H           2.932301   -3.437635    3.827495 H         1 <1>         0.210005 
     69 H           1.441014   -1.251669    6.043268 H         1 <1>         0.025536 
     70 H           0.600472    0.004646    5.093688 H         1 <1>         0.025536 
     71 H           1.126793   -1.504961    4.316112 H         1 <1>         0.025536 
     72 H           5.324645    0.127758    5.616888 H         1 <1>         0.210002 
@<TRIPOS>BOND
     1    1    2 2    
     2    1    3 1    
     3    1    4 1    
     4    2    5 1    
     5    2    6 1    
     6    3    7 1    
     7    3    8 2    
     8    4    9 1    
     9    5   10 1    
    10    5   11 2    
    11    6   12 1    
    12    7   12 1    
    13    7   13 2    
    14    9   14 1    
    15    9   15 1    
    16    9   43 1    
    17   10   16 2    
    18   10   44 1    
    19   11   17 1    
    20   11   45 1    
    21   12   18 2    
    22   13   19 1    
    23   13   20 1    
    24   14   21 1    
    25   15   22 1    
    26   15   23 1    
    27   15   46 1    
    28   16   24 1    
    29   16   47 1    
    30   17   24 2    
    31   17   48 1    
    32   18   25 1    
    33   18   49 1    
    34   19   25 2    
    35   19   50 1    
    36   20   51 1    
    37   21   26 1    
    38   21   27 1    
    39   21   52 1    
    40   22   26 1    
    41   22   28 1    
    42   22   53 1    
    43   23   54 1    
    44   24   29 1    
    45   25   30 1    
    46   26   31 1    
    47   26   55 1    
    48   27   32 1    
    49   27   56 1    
    50   27   57 1    
    51   28   58 1    
    52   29   59 1    
    53   30   60 1    
    54   31   61 1    
    55   32   33 1    
    56   33   34 1    
    57   33   35 1    
    58   33   62 1    
    59   34   36 1    
    60   34   37 1    
    61   34   63 1    
    62   35   38 1    
    63   36   39 1    
    64   36   40 1    
    65   36   64 1    
    66   37   65 1    
    67   38   39 1    
    68   38   41 1    
    69   38   66 1    
    70   39   42 1    
    71   39   67 1    
    72   40   68 1    
    73   41   69 1    
    74   41   70 1    
    75   41   71 1    
    76   42   72 1    
@<TRIPOS>SUBSTRUCTURE
     1 ****        1 TEMP              0 ****  ****    0 ROOT 
@<TRIPOS>NORMAL
@<TRIPOS>FF_PBC
FORCE_FIELD_SETUP_FEATURE Force Field Setup information
v1.0  0 0.000000 0.000000 0.000000 0.000000 0.000000 0.000000 NONE 0 0 0 0 1 0 0 0 0 0 0 0 0
