@<TRIPOS>MOLECULE
MOL002100
   42    43     1     1     0
SMALL
GASTEIGER


@<TRIPOS>ATOM
      1 C          -1.162494    2.238400    1.241587 C.3       1 <1>         0.095574 
      2 C          -2.522570    1.497089    1.096471 C.3       1 <1>         0.048049 
      3 C          -2.452656    0.064659    1.706660 C.3       1 <1>        -0.036716 
      4 C          -1.361948   -0.834813    1.062218 C.3       1 <1>        -0.023974 
      5 C          -0.108657   -0.030038    0.864909 C.2       1 <1>        -0.005712 
      6 C          -0.031442    1.293118    0.945164 C.2       1 <1>         0.058892 
      7 C           1.265434   -0.452945    0.547652 C.2       1 <1>         0.086237 
      8 O           2.163192    0.535930    0.439106 O.3       1 <1>        -0.274144 
      9 C           1.375682    1.588598    0.676806 C.2       1 <1>         0.297602 
     10 O           1.802531    2.731653    0.670548 O.2       1 <1>        -0.259074 
     11 C           1.633249   -1.727420    0.364365 C.2       1 <1>        -0.053069 
     12 C           3.044264   -2.160119    0.037627 C.3       1 <1>        -0.032278 
     13 C           3.535678   -3.207498    1.071573 C.3       1 <1>        -0.052380 
     14 C           4.975595   -3.686234    0.752586 C.3       1 <1>        -0.064997 
     15 O          -1.015596    2.686603    2.601575 O.3       1 <1>        -0.386278 
     16 C          -3.116044    1.548781   -0.301035 C.2       1 <1>         0.139193 
     17 O          -4.244426    1.983791   -0.468933 O.2       1 <1>        -0.297015 
     18 C          -2.322744    1.067116   -1.495191 C.3       1 <1>         0.005953 
     19 C          -2.581622    1.954945   -2.742274 C.3       1 <1>        -0.049217 
     20 C          -1.763247    1.461688   -3.965049 C.3       1 <1>        -0.064892 
     21 H          -1.137467    3.106328    0.559806 H         1 <1>         0.065241 
     22 H          -3.234162    2.070393    1.716737 H         1 <1>         0.040608 
     23 H          -3.437340   -0.427443    1.633875 H         1 <1>         0.027600 
     24 H          -2.207962    0.173710    2.777677 H         1 <1>         0.027600 
     25 H          -1.692172   -1.216309    0.085955 H         1 <1>         0.031430 
     26 H          -1.160983   -1.700983    1.711410 H         1 <1>         0.031430 
     27 H           0.880319   -2.510693    0.449153 H         1 <1>         0.059779 
     28 H           3.741801   -1.307296    0.026896 H         1 <1>         0.030812 
     29 H           3.042945   -2.606992   -0.969360 H         1 <1>         0.030812 
     30 H           2.859607   -4.078898    1.065486 H         1 <1>         0.026559 
     31 H           3.513220   -2.761026    2.079925 H         1 <1>         0.026559 
     32 H           5.299816   -4.434893    1.492858 H         1 <1>         0.022987 
     33 H           5.677593   -2.838412    0.781400 H         1 <1>         0.022987 
     34 H           5.014406   -4.143984   -0.248027 H         1 <1>         0.022987 
     35 H          -0.206219    3.167344    2.753825 H         1 <1>         0.210261 
     36 H          -1.242545    1.061787   -1.304554 H         1 <1>         0.034155 
     37 H          -2.645053    0.041157   -1.727691 H         1 <1>         0.034155 
     38 H          -3.654350    1.938855   -2.998905 H         1 <1>         0.026663 
     39 H          -2.298349    2.995410   -2.510307 H         1 <1>         0.026663 
     40 H          -1.955953    2.107535   -4.836473 H         1 <1>         0.022988 
     41 H          -0.684575    1.486965   -3.743639 H         1 <1>         0.022988 
     42 H          -2.046497    0.429472   -4.224794 H         1 <1>         0.022988 
@<TRIPOS>BOND
     1    1    2 1    
     2    1    6 1    
     3    1   15 1    
     4    1   21 1    
     5    2    3 1    
     6    2   16 1    
     7    2   22 1    
     8    3    4 1    
     9    3   23 1    
    10    3   24 1    
    11    4    5 1    
    12    4   25 1    
    13    4   26 1    
    14    5    6 2    
    15    5    7 1    
    16    6    9 1    
    17    7    8 1    
    18    7   11 2    
    19    8    9 1    
    20    9   10 2    
    21   11   12 1    
    22   11   27 1    
    23   12   13 1    
    24   12   28 1    
    25   12   29 1    
    26   13   14 1    
    27   13   30 1    
    28   13   31 1    
    29   14   32 1    
    30   14   33 1    
    31   14   34 1    
    32   15   35 1    
    33   16   17 2    
    34   16   18 1    
    35   18   19 1    
    36   18   36 1    
    37   18   37 1    
    38   19   20 1    
    39   19   38 1    
    40   19   39 1    
    41   20   40 1    
    42   20   41 1    
    43   20   42 1    
@<TRIPOS>SUBSTRUCTURE
     1 ****        1 TEMP              0 ****  ****    0 ROOT 
@<TRIPOS>NORMAL
@<TRIPOS>FF_PBC
FORCE_FIELD_SETUP_FEATURE Force Field Setup information
v1.0  0 0.000000 0.000000 0.000000 0.000000 0.000000 0.000000 NONE 0 0 0 0 1 0 0 0 0 0 0 0 0
