@<TRIPOS>MOLECULE
MOL002267
   71    75     1     1     0
SMALL
GASTEIGER


@<TRIPOS>ATOM
      1 C           0.383332    3.477225    1.976043 C.ar      1 <1>         0.035569 
      2 C           0.391483    1.993703    2.078691 C.ar      1 <1>         0.063177 
      3 C           1.276570    1.263376    1.092746 C.2       1 <1>         0.199457 
      4 C           1.599903    1.874309   -0.251212 C.ar      1 <1>         0.063218 
      5 C           1.506063    3.344551   -0.392994 C.ar      1 <1>         0.036307 
      6 C           1.019744    4.158967    0.783652 C.2       1 <1>         0.194687 
      7 C           1.994898    1.109191   -1.332709 C.ar      1 <1>         0.091693 
      8 C           2.378698    1.772706   -2.599468 C.ar      1 <1>        -0.017964 
      9 C           2.318183    3.122722   -2.718738 C.ar      1 <1>         0.049427 
     10 C           1.853846    3.938430   -1.569297 C.ar      1 <1>        -0.037195 
     11 C          -0.215616    4.231899    2.940697 C.ar      1 <1>        -0.050071 
     12 C          -0.900023    3.584842    4.081921 C.ar      1 <1>        -0.058608 
     13 C          -0.988431    2.248503    4.132340 C.ar      1 <1>        -0.030827 
     14 C          -0.394425    1.386235    3.080124 C.ar      1 <1>         0.090952 
     15 O           2.044732   -0.282349   -1.235941 O.3       1 <1>        -0.311801 
     16 O           1.808074    0.209888    1.399370 O.2       1 <1>        -0.286435 
     17 C           2.719119    3.806745   -4.007789 C.2       1 <1>         0.291337 
     18 O           2.650249    5.138011   -4.089112 O.3       1 <1>        -0.327489 
     19 O           3.102216    3.141368   -4.958378 O.2       1 <1>        -0.259428 
     20 O           1.128090    5.375156    0.754818 O.2       1 <1>        -0.286609 
     21 O          -0.645506    0.005928    3.157531 O.3       1 <1>        -0.311822 
     22 C          -3.088561    0.071936    1.229044 C.3       1 <1>         0.113017 
     23 C          -3.803805   -1.233361    1.678739 C.3       1 <1>         0.111896 
     24 C          -3.033526   -1.909497    2.845061 C.3       1 <1>         0.114074 
     25 C          -1.574816   -2.158150    2.395965 C.3       1 <1>         0.134509 
     26 C          -0.934865   -0.801441    1.998134 C.3       1 <1>         0.193669 
     27 O          -1.685915   -0.142013    0.956684 O.3       1 <1>        -0.340168 
     28 C           1.709255   -3.190666   -1.330734 C.3       1 <1>         0.113017 
     29 C           1.173079   -3.462300   -2.761435 C.3       1 <1>         0.111896 
     30 C           1.044478   -2.144912   -3.576302 C.3       1 <1>         0.114074 
     31 C           0.215601   -1.113457   -2.765008 C.3       1 <1>         0.134509 
     32 C           0.779610   -0.964124   -1.323610 C.3       1 <1>         0.193670 
     33 O           0.869177   -2.234601   -0.655020 O.3       1 <1>        -0.340168 
     34 O          -3.665458   -3.143070    3.236416 O.3       1 <1>        -0.386401 
     35 C          -3.395151    1.278511    2.154353 C.3       1 <1>         0.073015 
     36 O           2.339295   -1.647932   -3.966616 O.3       1 <1>        -0.386401 
     37 C           3.232064   -2.877254   -1.283194 C.3       1 <1>         0.073015 
     38 O          -2.714451    2.446897    1.653754 O.3       1 <1>        -0.392366 
     39 O           3.994759   -4.042287   -1.649194 O.3       1 <1>        -0.392366 
     40 O          -5.158908   -0.934353    2.067510 O.3       1 <1>        -0.386488 
     41 O          -1.616099   -3.087211    1.287391 O.3       1 <1>        -0.384091 
     42 O          -1.146288   -1.596096   -2.740556 O.3       1 <1>        -0.384091 
     43 O           2.030752   -4.420637   -3.416784 O.3       1 <1>        -0.386488 
     44 H           2.718031    1.162724   -3.426064 H         1 <1>         0.065125 
     45 H           1.790736    5.016939   -1.672534 H         1 <1>         0.063253 
     46 H          -0.210630    5.315406    2.876557 H         1 <1>         0.062482 
     47 H          -1.332445    4.195595    4.868458 H         1 <1>         0.061857 
     48 H          -1.497114    1.776171    4.966755 H         1 <1>         0.064350 
     49 H           2.925942    5.463924   -4.939225 H         1 <1>         0.220555 
     50 H          -3.508436    0.364972    0.252569 H         1 <1>         0.064668 
     51 H          -3.816350   -1.928000    0.819031 H         1 <1>         0.064673 
     52 H          -3.047977   -1.257564    3.731668 H         1 <1>         0.064758 
     53 H          -1.015511   -2.606642    3.235308 H         1 <1>         0.067108 
     54 H           0.017212   -1.112115    1.564549 H         1 <1>         0.094160 
     55 H           1.597149   -4.123889   -0.753270 H         1 <1>         0.064668 
     56 H           0.161073   -3.892110   -2.645378 H         1 <1>         0.064673 
     57 H           0.489390   -2.385087   -4.501357 H         1 <1>         0.064758 
     58 H           0.243414   -0.136965   -3.277029 H         1 <1>         0.067108 
     59 H           0.041340   -0.391912   -0.747131 H         1 <1>         0.094160 
     60 H          -3.634226   -3.794695    2.542016 H         1 <1>         0.210005 
     61 H          -4.482392    1.468669    2.153865 H         1 <1>         0.058370 
     62 H          -3.100657    1.049197    3.185567 H         1 <1>         0.058370 
     63 H           2.300621   -0.915755   -4.573225 H         1 <1>         0.210005 
     64 H           3.505392   -2.610652   -0.250387 H         1 <1>         0.058370 
     65 H           3.525632   -2.039961   -1.930571 H         1 <1>         0.058370 
     66 H          -2.901219    3.233623    2.157354 H         1 <1>         0.209508 
     67 H           3.768136   -4.345988   -2.526252 H         1 <1>         0.209508 
     68 H          -5.627047   -1.710141    2.363946 H         1 <1>         0.210004 
     69 H          -0.758476   -3.297296    0.926827 H         1 <1>         0.210111 
     70 H          -1.752446   -1.023806   -2.279011 H         1 <1>         0.210111 
     71 H           1.732236   -4.645327   -4.292929 H         1 <1>         0.210004 
@<TRIPOS>BOND
     1    2    1 1    
     2    6    1 1    
     3    1   11 2    
     4    3    2 1    
     5    2   14 2    
     6    4    3 1    
     7    3   16 2    
     8    4    5 1    
     9    7    4 2    
    10    5    6 1    
    11    5   10 2    
    12    6   20 2    
    13    7    8 1    
    14   15    7 1    
    15    8    9 2    
    16    8   44 1    
    17    9   10 1    
    18    9   17 1    
    19   10   45 1    
    20   11   12 1    
    21   11   46 1    
    22   13   12 2    
    23   12   47 1    
    24   14   13 1    
    25   13   48 1    
    26   14   21 1    
    27   32   15 1    
    28   17   18 1    
    29   17   19 2    
    30   18   49 1    
    31   21   26 1    
    32   22   23 1    
    33   27   22 1    
    34   22   35 1    
    35   22   50 1    
    36   24   23 1    
    37   23   40 1    
    38   23   51 1    
    39   25   24 1    
    40   24   34 1    
    41   24   52 1    
    42   26   25 1    
    43   25   41 1    
    44   25   53 1    
    45   26   27 1    
    46   26   54 1    
    47   29   28 1    
    48   28   33 1    
    49   28   37 1    
    50   28   55 1    
    51   30   29 1    
    52   29   43 1    
    53   29   56 1    
    54   31   30 1    
    55   30   36 1    
    56   30   57 1    
    57   31   32 1    
    58   31   42 1    
    59   31   58 1    
    60   32   33 1    
    61   32   59 1    
    62   34   60 1    
    63   35   38 1    
    64   35   61 1    
    65   35   62 1    
    66   36   63 1    
    67   37   39 1    
    68   37   64 1    
    69   37   65 1    
    70   38   66 1    
    71   39   67 1    
    72   40   68 1    
    73   41   69 1    
    74   42   70 1    
    75   43   71 1    
@<TRIPOS>SUBSTRUCTURE
     1 ****       28 TEMP              0 ****  ****    0 ROOT 
@<TRIPOS>NORMAL
@<TRIPOS>FF_PBC
FORCE_FIELD_SETUP_FEATURE Force Field Setup information
v1.0  0 0.000000 0.000000 0.000000 0.000000 0.000000 0.000000 NONE 0 0 0 0 1 0 0 0 0 0 0 0 0
