@<TRIPOS>MOLECULE
MOL002163
   20    20     1     1     0
SMALL
GASTEIGER


@<TRIPOS>ATOM
      1 C           0.042118   -0.515300    0.137397 C.ar      1 <1>         0.017383 
      2 C           0.971722    0.641682   -0.169469 C.2       1 <1>         0.162905 
      3 C           0.622335   -1.835827    0.490184 C.ar      1 <1>        -0.051266 
      4 C          -1.377419   -0.378083    0.098631 C.ar      1 <1>        -0.051266 
      5 C           0.451528    2.011182   -0.535310 C.3       1 <1>         0.007624 
      6 O           2.177348    0.456919   -0.118288 O.2       1 <1>        -0.292070 
      7 C          -0.213001   -2.932316    0.781081 C.ar      1 <1>        -0.061097 
      8 C          -2.250225   -1.536302    0.405925 C.ar      1 <1>        -0.061097 
      9 C           1.585732    3.034184   -0.806112 C.3       1 <1>        -0.058238 
     10 C          -1.685755   -2.778264    0.737754 C.ar      1 <1>        -0.061720 
     11 H           1.699622   -1.961962    0.525461 H         1 <1>         0.062450 
     12 H          -1.840878    0.568168   -0.154245 H         1 <1>         0.062450 
     13 H          -0.169867    1.923178   -1.440701 H         1 <1>         0.034238 
     14 H          -0.172684    2.384957    0.291892 H         1 <1>         0.034238 
     15 H           0.220765   -3.893600    1.037909 H         1 <1>         0.061777 
     16 H          -3.329207   -1.421889    0.373769 H         1 <1>         0.061777 
     17 H           1.160161    4.015757   -1.068430 H         1 <1>         0.023385 
     18 H           2.215046    3.152408    0.090055 H         1 <1>         0.023385 
     19 H           2.217889    2.691214   -1.640304 H         1 <1>         0.023385 
     20 H          -2.325130   -3.626106    0.962699 H         1 <1>         0.061759 
@<TRIPOS>BOND
     1    1    2 1    
     2    1    3 1    
     3    1    4 2    
     4    2    5 1    
     5    2    6 2    
     6    3    7 2    
     7    3   11 1    
     8    4    8 1    
     9    4   12 1    
    10    5    9 1    
    11    5   13 1    
    12    5   14 1    
    13    7   10 1    
    14    7   15 1    
    15    8   10 2    
    16    8   16 1    
    17    9   17 1    
    18    9   18 1    
    19    9   19 1    
    20   10   20 1    
@<TRIPOS>SUBSTRUCTURE
     1 ****        1 TEMP              0 ****  ****    0 ROOT 
@<TRIPOS>NORMAL
@<TRIPOS>FF_PBC
FORCE_FIELD_SETUP_FEATURE Force Field Setup information
v1.0  0 0.000000 0.000000 0.000000 0.000000 0.000000 0.000000 NONE 0 0 0 0 1 0 0 0 0 0 0 0 0
