@<TRIPOS>MOLECULE
MOL012962
   54    57     1     1     0
SMALL
GASTEIGER


@<TRIPOS>ATOM
      1 O           3.085897   -0.280266    1.314790 O.3       1 <1>        -0.361023 
      2 O           2.970579    0.405136   -2.362271 O.3       1 <1>        -0.386221 
      3 O           5.291205   -1.252936   -2.186325 O.3       1 <1>        -0.386477 
      4 O           4.585304   -2.583884    0.174430 O.3       1 <1>        -0.386490 
      5 O           6.619380    0.450554    2.215072 O.3       1 <1>        -0.392367 
      6 O           1.187083    2.837816   -0.349884 O.3       1 <1>        -0.347388 
      7 O           1.121334   -2.017817    0.524070 O.3       1 <1>        -0.358595 
      8 O          -3.108231    0.474003   -0.090466 O.3       1 <1>        -0.307711 
      9 O          -1.351745   -3.065409    0.821710 O.2       1 <1>        -0.287017 
     10 O          -9.613022    0.140888    0.020026 O.3       1 <1>        -0.359832 
     11 C           3.272164   -0.339822   -1.165350 C.3       1 <1>         0.113849 
     12 C           4.807215   -0.507890   -1.048918 C.3       1 <1>         0.112059 
     13 C           2.724795    0.392245    0.091121 C.3       1 <1>         0.117272 
     14 C           5.124424   -1.249177    0.278703 C.3       1 <1>         0.111744 
     15 C           4.501384   -0.492529    1.487651 C.3       1 <1>         0.110816 
     16 C           1.191360    0.430628    0.050447 C.ar      1 <1>         0.044162 
     17 C           5.265656    0.803366    1.870649 C.3       1 <1>         0.072938 
     18 C           0.432746   -0.823980    0.285914 C.ar      1 <1>         0.094055 
     19 C           0.486914    1.641771   -0.190612 C.ar      1 <1>         0.086487 
     20 C          -0.983248   -0.782743    0.275169 C.ar      1 <1>         0.082300 
     21 C          -0.994762    1.640760   -0.252018 C.ar      1 <1>         0.000072 
     22 C          -1.710771    0.464981   -0.027487 C.ar      1 <1>         0.098831 
     23 C          -1.848510   -1.978577    0.571457 C.2       1 <1>         0.193519 
     24 C          -3.854265   -0.600027    0.228205 C.2       1 <1>         0.093865 
     25 C          -3.300854   -1.778388    0.552655 C.2       1 <1>         0.016919 
     26 C           1.147034    3.457498   -1.645611 C.3       1 <1>         0.043042 
     27 C          -5.357587   -0.426551    0.196261 C.ar      1 <1>         0.005751 
     28 C          -6.198492   -1.005741    1.166259 C.ar      1 <1>        -0.049682 
     29 C          -5.953347    0.387972   -0.891091 C.ar      1 <1>        -0.049682 
     30 C          -7.665868   -0.803339    1.092891 C.ar      1 <1>        -0.031304 
     31 C          -7.344290    0.578693   -0.962143 C.ar      1 <1>        -0.031304 
     32 C          -8.228700   -0.034202    0.063251 C.ar      1 <1>         0.072619 
     33 H           2.843710   -1.353565   -1.236916 H         1 <1>         0.064945 
     34 H           5.269022    0.492887   -1.069697 H         1 <1>         0.064684 
     35 H           3.111336    1.421545    0.100953 H         1 <1>         0.067491 
     36 H           6.219053   -1.318546    0.398758 H         1 <1>         0.064671 
     37 H           4.587979   -1.147485    2.370102 H         1 <1>         0.064591 
     38 H           4.756748    1.259244    2.737440 H         1 <1>         0.058369 
     39 H           5.272946    1.539721    1.053621 H         1 <1>         0.058369 
     40 H           2.040583    0.425932   -2.560452 H         1 <1>         0.210016 
     41 H           6.231652   -1.396302   -2.169855 H         1 <1>         0.210004 
     42 H           4.742031   -3.126831    0.939936 H         1 <1>         0.210004 
     43 H          -1.532796    2.555736   -0.468638 H         1 <1>         0.066965 
     44 H           7.141816    1.193977    2.503152 H         1 <1>         0.209508 
     45 H           0.562606   -2.768017    0.702393 H         1 <1>         0.217355 
     46 H          -3.916601   -2.640812    0.803062 H         1 <1>         0.068219 
     47 H           0.118458    3.674727   -1.970135 H         1 <1>         0.052870 
     48 H           1.639512    2.824145   -2.396387 H         1 <1>         0.052870 
     49 H           1.699361    4.405567   -1.576559 H         1 <1>         0.052870 
     50 H          -5.787908   -1.595128    1.978584 H         1 <1>         0.062503 
     51 H          -5.308553    0.837747   -1.640097 H         1 <1>         0.062503 
     52 H          -8.314321   -1.249496    1.840202 H         1 <1>         0.064339 
     53 H          -7.767349    1.172666   -1.766771 H         1 <1>         0.064339 
     54 H          -9.908465    0.707753   -0.683455 H         1 <1>         0.217313 
@<TRIPOS>BOND
     1   13    1 1    
     2    1   15 1    
     3   11    2 1    
     4    2   40 1    
     5   12    3 1    
     6    3   41 1    
     7   14    4 1    
     8    4   42 1    
     9   17    5 1    
    10    5   44 1    
    11   19    6 1    
    12    6   26 1    
    13   18    7 1    
    14    7   45 1    
    15    8   22 1    
    16   24    8 1    
    17   23    9 2    
    18   32   10 1    
    19   10   54 1    
    20   11   12 1    
    21   13   11 1    
    22   11   33 1    
    23   12   14 1    
    24   12   34 1    
    25   16   13 1    
    26   13   35 1    
    27   15   14 1    
    28   14   36 1    
    29   15   17 1    
    30   15   37 1    
    31   18   16 1    
    32   19   16 2    
    33   17   38 1    
    34   17   39 1    
    35   20   18 2    
    36   21   19 1    
    37   22   20 1    
    38   23   20 1    
    39   22   21 2    
    40   21   43 1    
    41   25   23 1    
    42   24   25 2    
    43   27   24 1    
    44   25   46 1    
    45   26   47 1    
    46   26   48 1    
    47   26   49 1    
    48   28   27 2    
    49   27   29 1    
    50   30   28 1    
    51   28   50 1    
    52   29   31 2    
    53   29   51 1    
    54   30   32 2    
    55   30   52 1    
    56   31   32 1    
    57   31   53 1    
@<TRIPOS>SUBSTRUCTURE
     1 ****        2 TEMP              0 ****  ****    0 ROOT 
@<TRIPOS>NORMAL
@<TRIPOS>FF_PBC
FORCE_FIELD_SETUP_FEATURE Force Field Setup information
v1.0  0 0.000000 0.000000 0.000000 0.000000 0.000000 0.000000 NONE 0 0 0 0 1 0 0 0 0 0 0 0 0
