@<TRIPOS>MOLECULE
MOL004648
   59    59     1     1     0
SMALL
GASTEIGER


@<TRIPOS>ATOM
      1 C           3.951954   -3.429016   -0.999177 C.3       1 <1>        -0.026906 
      2 C           2.520891   -3.729738   -0.613536 C.2       1 <1>        -0.080833 
      3 C           1.677430   -2.833685   -0.074386 C.2       1 <1>        -0.054358 
      4 C           0.260427   -3.249639    0.260488 C.3       1 <1>        -0.040005 
      5 C           2.106466   -1.444112    0.218366 C.2       1 <1>        -0.059125 
      6 C           1.277892   -0.391719    0.273186 C.2       1 <1>        -0.061271 
      7 C           1.737720    0.980521    0.587596 C.2       1 <1>        -0.058829 
      8 C           0.962148    2.074865    0.638271 C.2       1 <1>        -0.050437 
      9 C           1.570557    3.408705    1.007369 C.3       1 <1>        -0.039709 
     10 C          -0.483485    2.017286    0.338558 C.2       1 <1>        -0.058564 
     11 C          -1.403702    2.627819    1.093527 C.2       1 <1>        -0.057858 
     12 C          -2.840275    2.543238    0.768835 C.2       1 <1>        -0.042725 
     13 C          -3.342510    3.287954   -0.232533 C.2       1 <1>        -0.068933 
     14 C          -2.497530    4.250542   -1.043220 C.3       1 <1>        -0.043221 
     15 C          -4.798908    3.241212   -0.637502 C.3       1 <1>        -0.031412 
     16 C          -5.545233    1.995539   -0.106233 C.3       1 <1>        -0.048572 
     17 C          -5.201326    1.821230    1.389758 C.3       1 <1>        -0.043582 
     18 C          -3.675666    1.582259    1.599279 C.3       1 <1>        -0.009891 
     19 C          -3.368998    1.759114    3.117152 C.3       1 <1>        -0.055792 
     20 C          -3.265569    0.138207    1.179021 C.3       1 <1>        -0.055792 
     21 C           4.550840   -4.529836   -1.916512 C.3       1 <1>         0.032203 
     22 C           6.014363   -4.220231   -2.314031 C.3       1 <1>         0.278233 
     23 O           6.047199   -2.983701   -3.035847 O.3       1 <1>        -0.342926 
     24 O           6.486368   -5.288854   -3.143076 O.3       1 <1>        -0.342926 
     25 O           6.807242   -4.131049   -1.124475 O.3       1 <1>        -0.342926 
     26 H           4.553235   -3.358343   -0.078933 H         1 <1>         0.031000 
     27 H           3.999903   -2.466151   -1.532344 H         1 <1>         0.031000 
     28 H           2.166260   -4.745625   -0.792248 H         1 <1>         0.057467 
     29 H           0.171654   -4.332521    0.436951 H         1 <1>         0.027744 
     30 H          -0.404777   -2.976502   -0.572279 H         1 <1>         0.027744 
     31 H          -0.082302   -2.741972    1.174916 H         1 <1>         0.027744 
     32 H           3.163819   -1.260944    0.406517 H         1 <1>         0.062011 
     33 H           0.221000   -0.559254    0.079711 H         1 <1>         0.061774 
     34 H           2.798592    1.105478    0.808210 H         1 <1>         0.062020 
     35 H           0.911298    4.240446    0.716380 H         1 <1>         0.027753 
     36 H           2.536833    3.553875    0.500266 H         1 <1>         0.027753 
     37 H           1.729057    3.447508    2.095493 H         1 <1>         0.027753 
     38 H          -0.823834    1.455976   -0.531712 H         1 <1>         0.062029 
     39 H          -1.108046    3.197446    1.974033 H         1 <1>         0.062053 
     40 H          -1.498988    4.443243   -0.626912 H         1 <1>         0.027453 
     41 H          -3.014090    5.219815   -1.112065 H         1 <1>         0.027453 
     42 H          -2.373073    3.847279   -2.059267 H         1 <1>         0.027453 
     43 H          -5.275522    4.152516   -0.241464 H         1 <1>         0.031008 
     44 H          -4.890829    3.258871   -1.735876 H         1 <1>         0.031008 
     45 H          -6.632623    2.133278   -0.233125 H         1 <1>         0.026856 
     46 H          -5.255349    1.103419   -0.681227 H         1 <1>         0.026856 
     47 H          -5.508837    2.742326    1.911908 H         1 <1>         0.027367 
     48 H          -5.783725    0.986913    1.813399 H         1 <1>         0.027367 
     49 H          -3.536004    2.804293    3.420299 H         1 <1>         0.023812 
     50 H          -4.027206    1.112398    3.717570 H         1 <1>         0.023812 
     51 H          -2.328880    1.493922    3.359601 H         1 <1>         0.023812 
     52 H          -2.215078   -0.059472    1.442137 H         1 <1>         0.023812 
     53 H          -3.888035   -0.608422    1.694926 H         1 <1>         0.023812 
     54 H          -3.363635   -0.013995    0.094996 H         1 <1>         0.023812 
     55 H           4.535419   -5.500437   -1.395246 H         1 <1>         0.034587 
     56 H           3.949586   -4.615215   -2.835740 H         1 <1>         0.034587 
     57 H           6.924423   -2.744264   -3.308588 H         1 <1>         0.215147 
     58 H           7.384508   -5.163267   -3.423765 H         1 <1>         0.215147 
     59 H           7.719674   -3.944193   -1.307874 H         1 <1>         0.215147 
@<TRIPOS>BOND
     1    1    2 1    
     2    1   21 1    
     3    1   26 1    
     4    1   27 1    
     5    2    3 2    
     6    2   28 1    
     7    3    4 1    
     8    3    5 1    
     9    4   29 1    
    10    4   30 1    
    11    4   31 1    
    12    5    6 2    
    13    5   32 1    
    14    6    7 1    
    15    6   33 1    
    16    7    8 2    
    17    7   34 1    
    18    8    9 1    
    19    8   10 1    
    20    9   35 1    
    21    9   36 1    
    22    9   37 1    
    23   10   11 2    
    24   10   38 1    
    25   11   12 1    
    26   11   39 1    
    27   12   13 2    
    28   12   18 1    
    29   13   14 1    
    30   13   15 1    
    31   14   40 1    
    32   14   41 1    
    33   14   42 1    
    34   15   16 1    
    35   15   43 1    
    36   15   44 1    
    37   16   17 1    
    38   16   45 1    
    39   16   46 1    
    40   17   18 1    
    41   17   47 1    
    42   17   48 1    
    43   18   19 1    
    44   18   20 1    
    45   19   49 1    
    46   19   50 1    
    47   19   51 1    
    48   20   52 1    
    49   20   53 1    
    50   20   54 1    
    51   21   22 1    
    52   21   55 1    
    53   21   56 1    
    54   22   23 1    
    55   22   24 1    
    56   22   25 1    
    57   23   57 1    
    58   24   58 1    
    59   25   59 1    
@<TRIPOS>SUBSTRUCTURE
     1 ****        1 TEMP              0 ****  ****    0 ROOT 
@<TRIPOS>NORMAL
@<TRIPOS>FF_PBC
FORCE_FIELD_SETUP_FEATURE Force Field Setup information
v1.0  0 0.000000 0.000000 0.000000 0.000000 0.000000 0.000000 NONE 0 0 0 0 1 0 0 0 0 0 0 0 0
