@<TRIPOS>MOLECULE
MOL000734
   24    23     1     1     0
SMALL
GASTEIGER


@<TRIPOS>ATOM
      1 C          -1.163264    0.638943    0.174166 C.3       1 <1>         0.115879 
      2 O           0.548447    1.471517    1.672592 O.3       1 <1>        -0.386488 
      3 C          -0.117416    0.259757    1.260638 C.3       1 <1>         0.111774 
      4 C           0.908861   -0.835015    0.833266 C.3       1 <1>         0.106499 
      5 C          -0.556863    1.155499   -1.160925 C.3       1 <1>         0.138145 
      6 O          -2.041232   -0.479506   -0.062781 O.3       1 <1>        -0.386144 
      7 C           0.249857   -2.159650    0.362141 C.3       1 <1>         0.072650 
      8 O           1.790287   -0.329271   -0.185192 O.3       1 <1>        -0.386870 
      9 C           0.397730    2.306045   -0.948750 C.2       1 <1>         0.151210 
     10 O          -1.659636    1.586450   -1.985300 O.3       1 <1>        -0.381901 
     11 O           1.278024   -3.164399    0.263973 O.3       1 <1>        -0.392376 
     12 O           1.484994    2.329927   -1.503746 O.2       1 <1>        -0.298200 
     13 H          -1.767662    1.462864    0.595467 H         1 <1>         0.065021 
     14 H           1.186036    1.339618    2.367675 H         1 <1>         0.210004 
     15 H          -0.691637   -0.126885    2.122199 H         1 <1>         0.064673 
     16 H           1.513843   -1.073084    1.726917 H         1 <1>         0.064289 
     17 H          -0.038701    0.324232   -1.665824 H         1 <1>         0.069684 
     18 H          -2.717685   -0.272110   -0.702654 H         1 <1>         0.210018 
     19 H          -0.522302   -2.476184    1.083706 H         1 <1>         0.058361 
     20 H          -0.213894   -2.015435   -0.626794 H         1 <1>         0.058361 
     21 H           2.448600   -0.968240   -0.444036 H         1 <1>         0.209989 
     22 H           0.115281    3.139687   -0.307589 H         1 <1>         0.105461 
     23 H          -1.381293    1.896321   -2.842751 H         1 <1>         0.210454 
     24 H           0.949621   -4.010880   -0.026197 H         1 <1>         0.209508 
@<TRIPOS>BOND
     1    1    3 1    
     2    1    5 1    
     3    1    6 1    
     4    1   13 1    
     5    3    2 1    
     6    2   14 1    
     7    3    4 1    
     8    3   15 1    
     9    4    7 1    
    10    4    8 1    
    11    4   16 1    
    12    5    9 1    
    13    5   10 1    
    14    5   17 1    
    15    6   18 1    
    16    7   11 1    
    17    7   19 1    
    18    7   20 1    
    19    8   21 1    
    20    9   12 2    
    21    9   22 1    
    22   10   23 1    
    23   11   24 1    
@<TRIPOS>SUBSTRUCTURE
     1 ****        1 TEMP              0 ****  ****    0 ROOT 
@<TRIPOS>NORMAL
@<TRIPOS>FF_PBC
FORCE_FIELD_SETUP_FEATURE Force Field Setup information
v1.0  0 0.000000 0.000000 0.000000 0.000000 0.000000 0.000000 NONE 0 0 0 0 1 0 0 0 0 0 0 0 0
