@<TRIPOS>MOLECULE
MOL000201
   26    25     1     1     0
SMALL
GASTEIGER


@<TRIPOS>ATOM
      1 C           1.250383   -1.846970   -0.000664 C.2       1 <1>        -0.054618 
      2 C           0.086287   -1.171857   -0.000143 C.2       1 <1>        -0.077370 
      3 C           1.205542   -3.336331   -0.000700 C.2       1 <1>        -0.066231 
      4 C           2.555632   -1.075065   -0.001245 C.3       1 <1>        -0.040013 
      5 C          -0.023472    0.339107   -0.000122 C.3       1 <1>        -0.015773 
      6 C           2.224021   -4.208599    0.001009 C.2       1 <1>        -0.098453 
      7 C          -1.444813    0.859251    0.000068 C.2       1 <1>        -0.081539 
      8 C          -1.756701    2.165014    0.000131 C.2       1 <1>        -0.079326 
      9 C          -3.209448    2.594514    0.000261 C.3       1 <1>        -0.044040 
     10 C          -0.697562    3.248529    0.000048 C.3       1 <1>        -0.044040 
     11 H          -0.847735   -1.733994    0.000322 H         1 <1>         0.057771 
     12 H           0.219448   -3.805713   -0.002295 H         1 <1>         0.061432 
     13 H           3.450876   -1.705958   -0.002529 H         1 <1>         0.027744 
     14 H           2.611905   -0.437869   -0.895938 H         1 <1>         0.027744 
     15 H           2.613267   -0.439039    0.894207 H         1 <1>         0.027744 
     16 H           0.480210    0.727705    0.897180 H         1 <1>         0.034987 
     17 H           0.479727    0.727715   -0.897681 H         1 <1>         0.034987 
     18 H           2.022992   -5.281245    0.000642 H         1 <1>         0.053489 
     19 H           3.276369   -3.939201    0.002851 H         1 <1>         0.053489 
     20 H          -2.271623    0.148091    0.000123 H         1 <1>         0.057453 
     21 H          -3.351507    3.685013    0.001295 H         1 <1>         0.027427 
     22 H          -3.706423    2.188946   -0.894124 H         1 <1>         0.027427 
     23 H          -3.706866    2.187262    0.893634 H         1 <1>         0.027427 
     24 H          -1.114131    4.266195   -0.000224 H         1 <1>         0.027427 
     25 H          -0.065829    3.149375    0.895056 H         1 <1>         0.027427 
     26 H          -0.065545    3.149067   -0.894722 H         1 <1>         0.027427 
@<TRIPOS>BOND
     1    1    2 2    
     2    1    3 1    
     3    1    4 1    
     4    2    5 1    
     5    2   11 1    
     6    3    6 2    
     7    3   12 1    
     8    4   13 1    
     9    4   14 1    
    10    4   15 1    
    11    5    7 1    
    12    5   16 1    
    13    5   17 1    
    14    6   18 1    
    15    6   19 1    
    16    7    8 2    
    17    7   20 1    
    18    8    9 1    
    19    8   10 1    
    20    9   21 1    
    21    9   22 1    
    22    9   23 1    
    23   10   24 1    
    24   10   25 1    
    25   10   26 1    
@<TRIPOS>SUBSTRUCTURE
     1 ****        1 TEMP              0 ****  ****    0 ROOT 
@<TRIPOS>NORMAL
@<TRIPOS>FF_PBC
FORCE_FIELD_SETUP_FEATURE Force Field Setup information
v1.0  0 0.000000 0.000000 0.000000 0.000000 0.000000 0.000000 NONE 0 0 0 0 1 0 0 0 0 0 0 0 0
