@<TRIPOS>MOLECULE
MOL002526
   39    40     1     1     0
SMALL
GASTEIGER


@<TRIPOS>ATOM
      1 C          -2.050828    0.610401   -0.218605 C.3       1 <1>        -0.042821 
      2 C          -1.670306    1.310105    1.115057 C.3       1 <1>        -0.031204 
      3 C          -0.301346    1.944921    0.998135 C.2       1 <1>        -0.073081 
      4 C          -1.425031   -0.803426   -0.385814 C.3       1 <1>        -0.019578 
      5 C           0.130482   -0.842830   -0.421869 C.3       1 <1>        -0.039726 
      6 C           0.802272    1.191996    0.867401 C.2       1 <1>        -0.067186 
      7 C           0.786974   -0.320950    0.888280 C.3       1 <1>        -0.016529 
      8 C           2.309105   -0.619128    1.040191 C.3       1 <1>        -0.037049 
      9 C           3.003604    0.512845    0.254354 C.3       1 <1>        -0.046211 
     10 C           2.188856    1.757321    0.672054 C.3       1 <1>        -0.030966 
     11 H           0.264332   -0.739017    1.763942 H         1 <1>         0.034845 
     12 C           2.790317   -2.032033    0.615201 C.3       1 <1>        -0.061865 
     13 C          -0.280275    3.460551    1.022011 C.3       1 <1>        -0.043525 
     14 C          -1.981263   -1.469683   -1.634220 C.2       1 <1>        -0.076582 
     15 C          -2.778881   -2.738417   -1.425051 C.3       1 <1>        -0.043777 
     16 C          -1.778242   -0.966097   -2.859803 C.2       1 <1>        -0.099446 
     17 H          -3.146546    0.478847   -0.240909 H         1 <1>         0.027399 
     18 H          -1.777708    1.267599   -1.058799 H         1 <1>         0.027399 
     19 H          -2.422675    2.092026    1.312018 H         1 <1>         0.031016 
     20 H          -1.716626    0.612574    1.964892 H         1 <1>         0.031016 
     21 H          -1.742982   -1.392383    0.492091 H         1 <1>         0.034569 
     22 H           0.386674   -1.903935   -0.559661 H         1 <1>         0.027676 
     23 H           0.517577   -0.282988   -1.286300 H         1 <1>         0.027676 
     24 H           2.572037   -0.486331    2.106776 H         1 <1>         0.030393 
     25 H           4.076150    0.607518    0.491159 H         1 <1>         0.027105 
     26 H           2.895408    0.334279   -0.828067 H         1 <1>         0.027105 
     27 H           2.253191    2.533917   -0.106826 H         1 <1>         0.031024 
     28 H           2.554909    2.154643    1.632497 H         1 <1>         0.031024 
     29 H           3.845681   -2.164914    0.900385 H         1 <1>         0.023260 
     30 H           2.190650   -2.802663    1.123789 H         1 <1>         0.023260 
     31 H           2.718249   -2.176310   -0.472899 H         1 <1>         0.023260 
     32 H           0.724088    3.903390    1.031344 H         1 <1>         0.027444 
     33 H          -0.814612    3.838748    0.137553 H         1 <1>         0.027444 
     34 H          -0.796245    3.818333    1.925824 H         1 <1>         0.027444 
     35 H          -3.650811   -2.522320   -0.789334 H         1 <1>         0.027436 
     36 H          -3.142282   -3.171354   -2.369358 H         1 <1>         0.027436 
     37 H          -2.148931   -3.489395   -0.924676 H         1 <1>         0.027436 
     38 H          -2.180721   -1.450471   -3.748797 H         1 <1>         0.053440 
     39 H          -1.204544   -0.055566   -3.024265 H         1 <1>         0.053440 
@<TRIPOS>BOND
     1    1    2 1    
     2    1    4 1    
     3    1   17 1    
     4    1   18 1    
     5    2    3 1    
     6    2   19 1    
     7    2   20 1    
     8    3    6 2    
     9    3   13 1    
    10    4    5 1    
    11    4   14 1    
    12    4   21 1    
    13    5    7 1    
    14    5   22 1    
    15    5   23 1    
    16    6    7 1    
    17    6   10 1    
    18    7    8 1    
    19    7   11 1    
    20    8    9 1    
    21    8   12 1    
    22    8   24 1    
    23    9   10 1    
    24    9   25 1    
    25    9   26 1    
    26   10   27 1    
    27   10   28 1    
    28   12   29 1    
    29   12   30 1    
    30   12   31 1    
    31   13   32 1    
    32   13   33 1    
    33   13   34 1    
    34   14   15 1    
    35   14   16 2    
    36   15   35 1    
    37   15   36 1    
    38   15   37 1    
    39   16   38 1    
    40   16   39 1    
@<TRIPOS>SUBSTRUCTURE
     1 ****        1 TEMP              0 ****  ****    0 ROOT 
@<TRIPOS>NORMAL
@<TRIPOS>FF_PBC
FORCE_FIELD_SETUP_FEATURE Force Field Setup information
v1.0  0 0.000000 0.000000 0.000000 0.000000 0.000000 0.000000 NONE 0 0 0 0 1 0 0 0 0 0 0 0 0
