@<TRIPOS>MOLECULE
MOL004065
   38    40     1     1     0
SMALL
GASTEIGER


@<TRIPOS>ATOM
      1 C           0.423428    1.393192   -0.853618 C.3       1 <1>        -0.015186 
      2 C          -0.930399    0.633974   -0.944418 C.3       1 <1>         0.031085 
      3 C          -1.142771    0.129232   -2.352184 C.2       1 <1>         0.159927 
      4 C           0.008128   -0.534418   -2.992322 C.2       1 <1>        -0.019640 
      5 C           1.125699   -0.593578   -2.253268 C.2       1 <1>        -0.065419 
      6 C           1.088800   -0.007733   -0.852502 C.3       1 <1>        -0.009955 
      7 C          -0.213717   -0.505857   -0.166723 C.3       1 <1>        -0.020593 
      8 C          -0.170326   -0.266011    1.377156 C.3       1 <1>        -0.034629 
      9 C          -0.126339    1.269112    1.651807 C.3       1 <1>        -0.049155 
     10 C           0.634497    2.047630    0.543325 C.3       1 <1>        -0.046140 
     11 O          -2.208151    0.260930   -2.931929 O.2       1 <1>        -0.292357 
     12 C           2.420475   -1.208070   -2.720982 C.3       1 <1>        -0.043098 
     13 C           0.813677    2.364512   -2.003398 C.3       1 <1>        -0.058346 
     14 C          -1.352429   -0.951424    2.147895 C.3       1 <1>        -0.043596 
     15 C          -1.336186   -2.505990    2.023721 C.3       1 <1>        -0.062405 
     16 C          -1.330715   -0.590061    3.664235 C.3       1 <1>        -0.062405 
     17 H          -1.824682    1.094146   -0.499113 H         1 <1>         0.038915 
     18 H          -0.067408   -0.934758   -4.002290 H         1 <1>         0.065192 
     19 H           2.026151   -0.123852   -0.285272 H         1 <1>         0.035407 
     20 H          -0.466667   -1.534534   -0.460163 H         1 <1>         0.031640 
     21 H           0.767468   -0.712347    1.748124 H         1 <1>         0.030631 
     22 H           0.332847    1.489097    2.630203 H         1 <1>         0.026828 
     23 H          -1.158813    1.654101    1.682568 H         1 <1>         0.026828 
     24 H           1.714905    2.064630    0.761281 H         1 <1>         0.027098 
     25 H           0.283888    3.093003    0.535893 H         1 <1>         0.027098 
     26 H           2.338717   -1.600597   -3.745862 H         1 <1>         0.027455 
     27 H           2.698624   -2.034619   -2.049980 H         1 <1>         0.027455 
     28 H           3.214394   -0.446327   -2.700016 H         1 <1>         0.027455 
     29 H           1.854949    2.689016   -1.857801 H         1 <1>         0.023544 
     30 H           0.731921    1.931442   -3.008898 H         1 <1>         0.023544 
     31 H           0.159588    3.248395   -1.965527 H         1 <1>         0.023544 
     32 H          -2.305696   -0.589524    1.725178 H         1 <1>         0.029823 
     33 H          -1.558405   -2.850751    1.005106 H         1 <1>         0.023242 
     34 H          -2.102350   -2.955574    2.674100 H         1 <1>         0.023242 
     35 H          -0.355369   -2.903685    2.325716 H         1 <1>         0.023242 
     36 H          -1.498061    0.482702    3.837195 H         1 <1>         0.023242 
     37 H          -2.126426   -1.123566    4.206863 H         1 <1>         0.023242 
     38 H          -0.362744   -0.871843    4.106001 H         1 <1>         0.023242 
@<TRIPOS>BOND
     1    1    2 1    
     2    1    6 1    
     3    1   10 1    
     4    1   13 1    
     5    2    3 1    
     6    2    7 1    
     7    2   17 1    
     8    3    4 1    
     9    3   11 2    
    10    4    5 2    
    11    4   18 1    
    12    5    6 1    
    13    5   12 1    
    14    6    7 1    
    15    6   19 1    
    16    7    8 1    
    17    7   20 1    
    18    8    9 1    
    19    8   14 1    
    20    8   21 1    
    21    9   10 1    
    22    9   22 1    
    23    9   23 1    
    24   10   24 1    
    25   10   25 1    
    26   12   26 1    
    27   12   27 1    
    28   12   28 1    
    29   13   29 1    
    30   13   30 1    
    31   13   31 1    
    32   14   15 1    
    33   14   16 1    
    34   14   32 1    
    35   15   33 1    
    36   15   34 1    
    37   15   35 1    
    38   16   36 1    
    39   16   37 1    
    40   16   38 1    
@<TRIPOS>SUBSTRUCTURE
     1 ****        1 TEMP              0 ****  ****    0 ROOT 
@<TRIPOS>NORMAL
@<TRIPOS>FF_PBC
FORCE_FIELD_SETUP_FEATURE Force Field Setup information
v1.0  0 0.000000 0.000000 0.000000 0.000000 0.000000 0.000000 NONE 0 0 0 0 1 0 0 0 0 0 0 0 0
