@<TRIPOS>MOLECULE
MOL006932
   27    27     1     1     0
SMALL
GASTEIGER


@<TRIPOS>ATOM
      1 C          -0.543292   -0.437900    1.084589 C.ar      1 <1>        -0.017677 
      2 C           0.163587    0.913174    0.890716 C.3       1 <1>         0.095172 
      3 C           0.227725   -1.661032    1.422992 C.ar      1 <1>        -0.056075 
      4 C          -1.955137   -0.531186    0.941566 C.ar      1 <1>        -0.056075 
      5 C           0.297432    1.233854   -0.631887 C.3       1 <1>         0.034690 
      6 O           1.438716    0.871672    1.559441 O.3       1 <1>        -0.385640 
      7 C          -0.431423   -2.893863    1.598664 C.ar      1 <1>        -0.061420 
      8 C          -2.643793   -1.830454    1.127028 C.ar      1 <1>        -0.061420 
      9 N           1.279196    0.317764   -1.266486 N.3       1 <1>        -0.313830 
     10 C           0.695628    2.719501   -0.859218 C.3       1 <1>        -0.046978 
     11 C          -1.902805   -2.980713    1.447025 C.ar      1 <1>        -0.061740 
     12 C           1.552623    0.501607   -2.709968 C.3       1 <1>        -0.015454 
     13 H          -0.469095    1.669566    1.386617 H         1 <1>         0.065903 
     14 H           1.305707   -1.611561    1.535377 H         1 <1>         0.062111 
     15 H          -2.539501    0.349069    0.695115 H         1 <1>         0.062111 
     16 H          -0.693634    1.086461   -1.096728 H         1 <1>         0.048622 
     17 H           1.918370    1.691235    1.516400 H         1 <1>         0.210299 
     18 H           0.137900   -3.784188    1.845596 H         1 <1>         0.061767 
     19 H          -3.721668   -1.891085    1.015176 H         1 <1>         0.061767 
     20 H           1.009436   -0.713686   -1.071604 H         1 <1>         0.121981 
     21 H           0.573032    2.999409   -1.916531 H         1 <1>         0.024558 
     22 H           0.058725    3.392519   -0.264912 H         1 <1>         0.024558 
     23 H           1.745771    2.884437   -0.577250 H         1 <1>         0.024558 
     24 H          -2.405247   -3.933071    1.583535 H         1 <1>         0.061758 
     25 H           0.615835    0.552434   -3.286971 H         1 <1>         0.038817 
     26 H           2.155943   -0.336789   -3.093965 H         1 <1>         0.038817 
     27 H           2.130270    1.423023   -2.874318 H         1 <1>         0.038817 
@<TRIPOS>BOND
     1    1    2 1    
     2    1    3 1    
     3    1    4 2    
     4    2    5 1    
     5    2    6 1    
     6    2   13 1    
     7    3    7 2    
     8    3   14 1    
     9    4    8 1    
    10    4   15 1    
    11    5    9 1    
    12    5   10 1    
    13    5   16 1    
    14    6   17 1    
    15    7   11 1    
    16    7   18 1    
    17    8   11 2    
    18    8   19 1    
    19    9   12 1    
    20    9   20 1    
    21   10   21 1    
    22   10   22 1    
    23   10   23 1    
    24   11   24 1    
    25   12   25 1    
    26   12   26 1    
    27   12   27 1    
@<TRIPOS>SUBSTRUCTURE
     1 ****        1 TEMP              0 ****  ****    0 ROOT 
@<TRIPOS>NORMAL
@<TRIPOS>FF_PBC
FORCE_FIELD_SETUP_FEATURE Force Field Setup information
v1.0  0 0.000000 0.000000 0.000000 0.000000 0.000000 0.000000 NONE 0 0 0 0 1 0 0 0 0 0 0 0 0
