@<TRIPOS>MOLECULE
MOL006951
   28    30     1     1     0
SMALL
GASTEIGER


@<TRIPOS>ATOM
      1 C           3.640414   -2.434819   -0.925425 C.ar      1 <1>         0.057791 
      2 C           4.342084   -1.743858    0.234800 C.ar      1 <1>         0.090643 
      3 C           3.368108   -0.898607    1.378560 C.ar      1 <1>        -0.028545 
      4 C           1.870391   -0.867020    1.199813 C.ar      1 <1>        -0.031770 
      5 C           1.110290   -1.581394   -0.002396 C.ar      1 <1>         0.106195 
      6 N           2.070245   -2.416206   -1.140854 N.ar      1 <1>        -0.251008 
      7 O           5.727454   -1.780161    0.389174 O.3       1 <1>        -0.358321 
      8 C          -0.408575   -1.531538   -0.149149 C.3       1 <1>         0.195942 
      9 N          -1.017983    2.010346   -1.131517 N.ar      1 <1>        -0.182275 
     10 C          -0.232680    0.846952   -1.121604 C.ar      1 <1>         0.269997 
     11 N          -0.871184   -0.107568   -0.378665 N.ar      1 <1>        -0.156837 
     12 C          -2.062059    0.401652    0.091250 C.ar      1 <1>         0.336860 
     13 N          -3.024475   -0.143681    0.845481 N.ar      1 <1>        -0.173077 
     14 C          -4.119565    0.640263    1.157342 C.ar      1 <1>         0.124351 
     15 N          -4.213629    1.964897    0.699581 N.ar      1 <1>        -0.221797 
     16 C          -3.233671    2.543337   -0.078708 C.ar      1 <1>         0.139685 
     17 C          -2.144153    1.780289   -0.400646 C.ar      1 <1>         0.197590 
     18 N          -3.346359    3.873210   -0.529943 N.3       1 <1>        -0.284765 
     19 H           4.239730   -2.973111   -1.651846 H         1 <1>         0.085582 
     20 H           3.835020   -0.394523    2.219569 H         1 <1>         0.064426 
     21 H           2.306559   -1.350460    0.530237 H         1 <1>         0.063835 
     22 H           6.177754   -2.234364   -0.314353 H         1 <1>         0.217376 
     23 H          -0.851227   -1.949156    0.768922 H         1 <1>         0.110212 
     24 H          -0.697584   -2.165480   -1.002228 H         1 <1>         0.110212 
     25 H           0.724537    0.739048   -1.626126 H         1 <1>         0.161962 
     26 H          -4.918498    0.227438    1.764200 H         1 <1>         0.104946 
     27 H          -3.426295    4.535898    0.319164 H         1 <1>         0.125394 
     28 H          -4.230476    3.972320   -1.142607 H         1 <1>         0.125394 
@<TRIPOS>BOND
     1    1    2 1    
     2    6    1 2    
     3    1   19 1    
     4    3    2 2    
     5    2    7 1    
     6    4    3 1    
     7    3   20 1    
     8    5    4 2    
     9    4   21 1    
    10    5    6 1    
    11    8    5 1    
    12    7   22 1    
    13   11    8 1    
    14    8   23 1    
    15    8   24 1    
    16   10    9 2    
    17    9   17 1    
    18   10   11 1    
    19   10   25 1    
    20   11   12 1    
    21   12   13 2    
    22   12   17 1    
    23   13   14 1    
    24   14   15 2    
    25   14   26 1    
    26   15   16 1    
    27   16   17 2    
    28   16   18 1    
    29   18   27 1    
    30   18   28 1    
@<TRIPOS>SUBSTRUCTURE
     1 ****        9 TEMP              0 ****  ****    0 ROOT 
@<TRIPOS>NORMAL
@<TRIPOS>FF_PBC
FORCE_FIELD_SETUP_FEATURE Force Field Setup information
v1.0  0 0.000000 0.000000 0.000000 0.000000 0.000000 0.000000 NONE 0 0 0 0 1 0 0 0 0 0 0 0 0
