@<TRIPOS>MOLECULE
MOL000749
   52    51     1     1     0
SMALL
GASTEIGER


@<TRIPOS>ATOM
      1 C           8.154714    4.670805   -3.601007 C.2       1 <1>         0.259588 
      2 C           7.580247    3.883524   -2.451118 C.3       1 <1>         0.033006 
      3 C           6.028797    3.865699   -2.465956 C.3       1 <1>        -0.044061 
      4 C           5.455285    3.057595   -1.269101 C.3       1 <1>        -0.052596 
      5 C           3.900914    3.028423   -1.305136 C.3       1 <1>        -0.053036 
      6 C           3.311139    2.250418   -0.097280 C.3       1 <1>        -0.052779 
      7 C           1.759144    2.214484   -0.157254 C.3       1 <1>        -0.049616 
      8 C           1.152911    1.502053    1.080118 C.3       1 <1>        -0.034751 
      9 C          -0.356162    1.500564    0.997206 C.2       1 <1>        -0.087640 
     10 C          -1.111579    0.417051    1.230856 C.2       1 <1>        -0.084202 
     11 C          -2.618436    0.449537    1.128416 C.3       1 <1>        -0.016545 
     12 C          -3.157152   -0.849707    0.574655 C.2       1 <1>        -0.084202 
     13 C          -4.306462   -1.386367    1.007599 C.2       1 <1>        -0.087640 
     14 C          -4.874470   -2.686287    0.486200 C.3       1 <1>        -0.034751 
     15 C          -5.340311   -3.587632    1.662416 C.3       1 <1>        -0.049624 
     16 C          -5.955042   -4.919547    1.148832 C.3       1 <1>        -0.053028 
     17 C          -6.467706   -5.793531    2.326683 C.3       1 <1>        -0.055902 
     18 C          -7.081404   -7.125377    1.821667 C.3       1 <1>        -0.065276 
     19 O           7.451309    5.238081   -4.423339 O.2       1 <1>        -0.265177 
     20 O           9.488550    4.704489   -3.655945 O.3       1 <1>        -0.331267 
     21 H           7.967409    2.854292   -2.514490 H         1 <1>         0.036600 
     22 H           7.935863    4.335766   -1.512577 H         1 <1>         0.036600 
     23 H           5.654333    4.900823   -2.419583 H         1 <1>         0.027004 
     24 H           5.681400    3.415129   -3.409844 H         1 <1>         0.027004 
     25 H           5.840475    2.024980   -1.306053 H         1 <1>         0.026540 
     26 H           5.790395    3.515692   -0.323341 H         1 <1>         0.026540 
     27 H           3.520036    4.063617   -1.291422 H         1 <1>         0.026529 
     28 H           3.570112    2.550987   -2.243265 H         1 <1>         0.026529 
     29 H           3.700024    1.219793   -0.097504 H         1 <1>         0.026538 
     30 H           3.631807    2.740845    0.836329 H         1 <1>         0.026538 
     31 H           1.376512    3.246620   -0.202867 H         1 <1>         0.026822 
     32 H           1.435983    1.688582   -1.069120 H         1 <1>         0.026822 
     33 H           1.447314    2.040081    1.994548 H         1 <1>         0.030732 
     34 H           1.548946    0.475843    1.143614 H         1 <1>         0.030732 
     35 H          -0.843186    2.441011    0.737643 H         1 <1>         0.056905 
     36 H          -0.640446   -0.526172    1.515676 H         1 <1>         0.057203 
     37 H          -3.017390    0.643133    2.135691 H         1 <1>         0.034961 
     38 H          -2.947420    1.261510    0.462205 H         1 <1>         0.034961 
     39 H          -2.581781   -1.347595   -0.208481 H         1 <1>         0.057203 
     40 H          -4.881850   -0.866073    1.773588 H         1 <1>         0.056905 
     41 H          -5.737440   -2.443478   -0.153736 H         1 <1>         0.030732 
     42 H          -4.136267   -3.231967   -0.123500 H         1 <1>         0.030732 
     43 H          -4.478774   -3.807701    2.315312 H         1 <1>         0.026822 
     44 H          -6.094962   -3.047896    2.259838 H         1 <1>         0.026822 
     45 H          -6.796128   -4.694536    0.471379 H         1 <1>         0.026529 
     46 H          -5.193474   -5.477692    0.578914 H         1 <1>         0.026529 
     47 H          -5.632455   -6.018616    3.009731 H         1 <1>         0.026265 
     48 H          -7.233987   -5.236462    2.891130 H         1 <1>         0.026265 
     49 H          -7.440766   -7.718712    2.677146 H         1 <1>         0.022978 
     50 H          -7.931966   -6.929082    1.149249 H         1 <1>         0.022978 
     51 H          -6.327392   -7.717519    1.278976 H         1 <1>         0.022978 
     52 H           9.801790    5.212524   -4.396700 H         1 <1>         0.220208 
@<TRIPOS>BOND
     1    1    2 1    
     2    1   19 2    
     3    1   20 1    
     4    2    3 1    
     5    2   21 1    
     6    2   22 1    
     7    3    4 1    
     8    3   23 1    
     9    3   24 1    
    10    4    5 1    
    11    4   25 1    
    12    4   26 1    
    13    5    6 1    
    14    5   27 1    
    15    5   28 1    
    16    6    7 1    
    17    6   29 1    
    18    6   30 1    
    19    7    8 1    
    20    7   31 1    
    21    7   32 1    
    22    8    9 1    
    23    8   33 1    
    24    8   34 1    
    25    9   10 2    
    26    9   35 1    
    27   10   11 1    
    28   10   36 1    
    29   11   12 1    
    30   11   37 1    
    31   11   38 1    
    32   12   13 2    
    33   12   39 1    
    34   13   14 1    
    35   13   40 1    
    36   14   15 1    
    37   14   41 1    
    38   14   42 1    
    39   15   16 1    
    40   15   43 1    
    41   15   44 1    
    42   16   17 1    
    43   16   45 1    
    44   16   46 1    
    45   17   18 1    
    46   17   47 1    
    47   17   48 1    
    48   18   49 1    
    49   18   50 1    
    50   18   51 1    
    51   20   52 1    
@<TRIPOS>SUBSTRUCTURE
     1 ****        1 TEMP              0 ****  ****    0 ROOT 
@<TRIPOS>NORMAL
@<TRIPOS>FF_PBC
FORCE_FIELD_SETUP_FEATURE Force Field Setup information
v1.0  0 0.000000 0.000000 0.000000 0.000000 0.000000 0.000000 NONE 0 0 0 0 1 0 0 0 0 0 0 0 0
