@<TRIPOS>MOLECULE
MOL004033
   39    40     1     1     0
SMALL
GASTEIGER


@<TRIPOS>ATOM
      1 C           1.099195   -1.067679   -0.293753 C.3       1 <1>        -0.025252 
      2 C           0.738350    0.420125   -0.600169 C.3       1 <1>        -0.014216 
      3 C          -0.121707   -1.993376   -0.599295 C.3       1 <1>        -0.046531 
      4 C          -0.600670    0.872292    0.054301 C.3       1 <1>        -0.039498 
      5 C          -1.767882   -0.082260   -0.310982 C.3       1 <1>        -0.019838 
      6 C           1.536475   -1.193964    1.196770 C.3       1 <1>        -0.043631 
      7 C          -1.435072   -1.541386    0.091776 C.3       1 <1>        -0.046000 
      8 C           1.847570    1.357488   -0.157147 C.2       1 <1>        -0.072914 
      9 C           2.273763   -1.522416   -1.219125 C.3       1 <1>        -0.059008 
     10 C           2.766801   -0.303326    1.508410 C.3       1 <1>        -0.033997 
     11 C           2.736470    1.024058    0.791562 C.2       1 <1>        -0.084726 
     12 C          -3.077237    0.375740    0.307481 C.2       1 <1>        -0.076591 
     13 C           1.908777    2.705358   -0.847417 C.3       1 <1>        -0.043506 
     14 C          -4.184939    0.741782   -0.655980 C.3       1 <1>        -0.043777 
     15 C          -3.251859    0.454433    1.634472 C.2       1 <1>        -0.099446 
     16 H           0.613054    0.500863   -1.692647 H         1 <1>         0.035097 
     17 H           0.108826   -3.028183   -0.297441 H         1 <1>         0.027087 
     18 H          -0.311736   -2.001865   -1.685248 H         1 <1>         0.027087 
     19 H          -0.482527    0.946586    1.144014 H         1 <1>         0.027684 
     20 H          -0.875225    1.875947   -0.307574 H         1 <1>         0.027684 
     21 H          -1.867743   -0.063230   -1.410392 H         1 <1>         0.034560 
     22 H           1.772806   -2.242116    1.443074 H         1 <1>         0.027364 
     23 H           0.727346   -0.883740    1.870866 H         1 <1>         0.027364 
     24 H          -2.260824   -2.197335   -0.232455 H         1 <1>         0.027114 
     25 H          -1.351630   -1.643511    1.182733 H         1 <1>         0.027114 
     26 H           3.149013   -0.862721   -1.139796 H         1 <1>         0.023525 
     27 H           2.588288   -2.545222   -0.961131 H         1 <1>         0.023525 
     28 H           1.967752   -1.518662   -2.276435 H         1 <1>         0.023525 
     29 H           3.690930   -0.821620    1.206048 H         1 <1>         0.030757 
     30 H           2.831452   -0.130458    2.595699 H         1 <1>         0.030757 
     31 H           3.512067    1.734817    1.080155 H         1 <1>         0.057163 
     32 H           1.023267    3.305908   -0.596602 H         1 <1>         0.027445 
     33 H           1.943459    2.564795   -1.938081 H         1 <1>         0.027445 
     34 H           2.797788    3.286631   -0.559812 H         1 <1>         0.027445 
     35 H          -3.848542    1.563754   -1.305886 H         1 <1>         0.027436 
     36 H          -4.429466   -0.130318   -1.281143 H         1 <1>         0.027436 
     37 H          -5.104193    1.064418   -0.144069 H         1 <1>         0.027436 
     38 H          -4.196339    0.784681    2.065361 H         1 <1>         0.053440 
     39 H          -2.465460    0.194412    2.340761 H         1 <1>         0.053440 
@<TRIPOS>BOND
     1    1    2 1    
     2    1    3 1    
     3    1    6 1    
     4    1    9 1    
     5    2    4 1    
     6    2    8 1    
     7    2   16 1    
     8    3    7 1    
     9    3   17 1    
    10    3   18 1    
    11    4    5 1    
    12    4   19 1    
    13    4   20 1    
    14    5    7 1    
    15    5   12 1    
    16    5   21 1    
    17    6   10 1    
    18    6   22 1    
    19    6   23 1    
    20    7   24 1    
    21    7   25 1    
    22    8   11 2    
    23    8   13 1    
    24    9   26 1    
    25    9   27 1    
    26    9   28 1    
    27   10   11 1    
    28   10   29 1    
    29   10   30 1    
    30   11   31 1    
    31   12   14 1    
    32   12   15 2    
    33   13   32 1    
    34   13   33 1    
    35   13   34 1    
    36   14   35 1    
    37   14   36 1    
    38   14   37 1    
    39   15   38 1    
    40   15   39 1    
@<TRIPOS>SUBSTRUCTURE
     1 ****        1 TEMP              0 ****  ****    0 ROOT 
@<TRIPOS>NORMAL
@<TRIPOS>FF_PBC
FORCE_FIELD_SETUP_FEATURE Force Field Setup information
v1.0  0 0.000000 0.000000 0.000000 0.000000 0.000000 0.000000 NONE 0 0 0 0 1 0 0 0 0 0 0 0 0
