@<TRIPOS>MOLECULE
MOL001494
   58    57     1     1     0
SMALL
GASTEIGER


@<TRIPOS>ATOM
      1 O           4.417109    3.932509   -0.498887 O.3       1 <1>        -0.315471 
      2 O           4.183099    1.947209   -1.391743 O.2       1 <1>        -0.264976 
      3 C          -1.374650    3.212822   -0.203553 C.3       1 <1>        -0.053036 
      4 C          -2.663442    2.393077    0.083970 C.3       1 <1>        -0.052779 
      5 C          -0.094779    2.385128    0.086524 C.3       1 <1>        -0.052596 
      6 C          -3.940375    3.260401   -0.102626 C.3       1 <1>        -0.049616 
      7 C           1.190721    3.195600   -0.235388 C.3       1 <1>        -0.044055 
      8 C          -5.229155    2.457389    0.218825 C.3       1 <1>        -0.034751 
      9 C           2.483600    2.431566    0.172683 C.3       1 <1>         0.033199 
     10 C          -9.723469   -2.705462   -0.014782 C.3       1 <1>        -0.049624 
     11 C          -8.780965   -3.936573    0.070502 C.3       1 <1>        -0.053028 
     12 C          -6.468881    3.319082    0.102711 C.2       1 <1>        -0.087640 
     13 C          -8.966001   -1.388284    0.289049 C.3       1 <1>        -0.034751 
     14 C          -9.584100   -5.252563   -0.115655 C.3       1 <1>        -0.055902 
     15 C           3.736212    2.774582   -0.613835 C.2       1 <1>         0.262151 
     16 C          -7.694715    2.856442   -0.186681 C.2       1 <1>        -0.084202 
     17 C          -8.012292    1.395998   -0.411972 C.3       1 <1>        -0.016545 
     18 C          -9.875738   -0.185017    0.179269 C.2       1 <1>        -0.087640 
     19 C          -9.458657    1.048596   -0.144245 C.2       1 <1>        -0.084202 
     20 C          -8.671491   -6.504217   -0.048179 C.3       1 <1>        -0.065276 
     21 C           3.804392    5.012449    0.227553 C.3       1 <1>         0.054243 
     22 C           4.852989    6.144860    0.339199 C.3       1 <1>        -0.040980 
     23 H          -1.371505    4.112905    0.432870 H         1 <1>         0.026529 
     24 H          -1.378169    3.535301   -1.257688 H         1 <1>         0.026529 
     25 H          -2.702966    1.523630   -0.593996 H         1 <1>         0.026538 
     26 H          -2.632965    2.018377    1.119777 H         1 <1>         0.026538 
     27 H          -0.114065    1.465394   -0.520021 H         1 <1>         0.026540 
     28 H          -0.083731    2.093080    1.149911 H         1 <1>         0.026540 
     29 H          -3.881989    4.131645    0.569481 H         1 <1>         0.026822 
     30 H          -3.991381    3.626877   -1.141472 H         1 <1>         0.026822 
     31 H           1.125354    4.148831    0.311530 H         1 <1>         0.027004 
     32 H           1.214953    3.406056   -1.315295 H         1 <1>         0.027004 
     33 H          -5.272318    1.602528   -0.474148 H         1 <1>         0.030732 
     34 H          -5.177705    2.076955    1.250654 H         1 <1>         0.030732 
     35 H           2.671216    2.523465    1.252983 H         1 <1>         0.036606 
     36 H           2.305945    1.360270   -0.010272 H         1 <1>         0.036606 
     37 H         -10.158533   -2.646873   -1.026373 H         1 <1>         0.026822 
     38 H         -10.544808   -2.819437    0.711559 H         1 <1>         0.026822 
     39 H          -8.281921   -3.950766    1.054245 H         1 <1>         0.026529 
     40 H          -8.001360   -3.866319   -0.706697 H         1 <1>         0.026529 
     41 H          -6.360172    4.391565    0.270571 H         1 <1>         0.056905 
     42 H          -8.563576   -1.420836    1.313398 H         1 <1>         0.030732 
     43 H          -8.128488   -1.320628   -0.421560 H         1 <1>         0.030732 
     44 H         -10.100462   -5.236912   -1.089807 H         1 <1>         0.026265 
     45 H         -10.343559   -5.326888    0.681149 H         1 <1>         0.026265 
     46 H          -8.506448    3.581492   -0.266296 H         1 <1>         0.057203 
     47 H          -7.374968    0.795837    0.253566 H         1 <1>         0.034961 
     48 H          -7.785367    1.150944   -1.460383 H         1 <1>         0.034961 
     49 H         -10.940049   -0.330224    0.378879 H         1 <1>         0.056905 
     50 H         -10.209683    1.836955   -0.221498 H         1 <1>         0.057203 
     51 H          -7.971316   -6.519145   -0.896443 H         1 <1>         0.022978 
     52 H          -8.091729   -6.508280    0.886174 H         1 <1>         0.022978 
     53 H          -9.278763   -7.421918   -0.080925 H         1 <1>         0.022978 
     54 H           3.493892    4.738877    1.247735 H         1 <1>         0.056303 
     55 H           2.950261    5.407973   -0.341660 H         1 <1>         0.056303 
     56 H           4.425164    7.022628    0.847462 H         1 <1>         0.025189 
     57 H           5.193884    6.448110   -0.662043 H         1 <1>         0.025189 
     58 H           5.721871    5.794514    0.916378 H         1 <1>         0.025189 
@<TRIPOS>BOND
     1   15    1 1    
     2    1   21 1    
     3   15    2 2    
     4    4    3 1    
     5    3    5 1    
     6    3   23 1    
     7    3   24 1    
     8    6    4 1    
     9    4   25 1    
    10    4   26 1    
    11    5    7 1    
    12    5   27 1    
    13    5   28 1    
    14    8    6 1    
    15    6   29 1    
    16    6   30 1    
    17    7    9 1    
    18    7   31 1    
    19    7   32 1    
    20   12    8 1    
    21    8   33 1    
    22    8   34 1    
    23    9   15 1    
    24    9   35 1    
    25    9   36 1    
    26   10   11 1    
    27   13   10 1    
    28   10   37 1    
    29   10   38 1    
    30   11   14 1    
    31   11   39 1    
    32   11   40 1    
    33   16   12 2    
    34   12   41 1    
    35   18   13 1    
    36   13   42 1    
    37   13   43 1    
    38   14   20 1    
    39   14   44 1    
    40   14   45 1    
    41   17   16 1    
    42   16   46 1    
    43   19   17 1    
    44   17   47 1    
    45   17   48 1    
    46   18   19 2    
    47   18   49 1    
    48   19   50 1    
    49   20   51 1    
    50   20   52 1    
    51   20   53 1    
    52   21   22 1    
    53   21   54 1    
    54   21   55 1    
    55   22   56 1    
    56   22   57 1    
    57   22   58 1    
@<TRIPOS>SUBSTRUCTURE
     1 ****       10 TEMP              0 ****  ****    0 ROOT 
@<TRIPOS>NORMAL
@<TRIPOS>FF_PBC
FORCE_FIELD_SETUP_FEATURE Force Field Setup information
v1.0  0 0.000000 0.000000 0.000000 0.000000 0.000000 0.000000 NONE 0 0 0 0 1 0 0 0 0 0 0 0 0
