@<TRIPOS>MOLECULE
MOL001652
   51    54     1     1     0
SMALL
GASTEIGER


@<TRIPOS>ATOM
      1 O           5.163219   -1.876772    0.437070 O.3       1 <1>        -0.303518 
      2 O           0.053172   -1.112046    0.542515 O.3       1 <1>        -0.319113 
      3 O           1.167253   -0.546364   -1.431915 O.3       1 <1>        -0.321653 
      4 O          -1.917897   -0.044176   -0.082337 O.3       1 <1>        -0.340431 
      5 O           1.750806    2.876245    0.552421 O.3       1 <1>        -0.311002 
      6 O          -1.322162   -3.658005    0.547812 O.3       1 <1>        -0.384103 
      7 O          -4.207588   -3.399514    0.917096 O.3       1 <1>        -0.386401 
      8 O          -5.432162   -1.186512   -0.527877 O.3       1 <1>        -0.386488 
      9 O           4.805153   -2.893861   -1.523321 O.2       1 <1>        -0.259476 
     10 O          -2.997967    2.241538   -1.405665 O.3       1 <1>        -0.392366 
     11 O           1.790318    4.615529   -0.883479 O.2       1 <1>        -0.265273 
     12 C           2.884877   -1.207443    0.849079 C.3       1 <1>         0.033332 
     13 C           2.098659    0.106568    0.835636 C.3       1 <1>         0.043613 
     14 C           4.373616   -0.916463    1.183768 C.3       1 <1>         0.094555 
     15 C           0.871393   -0.107778   -0.086433 C.3       1 <1>         0.174415 
     16 C           3.223450    1.011735    0.417939 C.2       1 <1>        -0.036555 
     17 C           3.090611   -1.584404   -0.581535 C.2       1 <1>         0.053299 
     18 C           4.437044    0.485934    0.624810 C.2       1 <1>        -0.052569 
     19 C          -1.210626   -1.299708   -0.121269 C.3       1 <1>         0.190802 
     20 C           4.411865   -2.184681   -0.612868 C.2       1 <1>         0.292633 
     21 C          -1.997463   -2.388376    0.652430 C.3       1 <1>         0.134212 
     22 C           2.261187   -1.310516   -1.593420 C.2       1 <1>         0.052367 
     23 C           2.889354    2.357643   -0.163400 C.3       1 <1>         0.078670 
     24 C          -3.435287   -2.512348    0.084941 C.3       1 <1>         0.114063 
     25 C          -4.112783   -1.115961    0.046753 C.3       1 <1>         0.111896 
     26 C          -3.214033   -0.101969   -0.707618 C.3       1 <1>         0.113007 
     27 C          -3.821165    1.324301   -0.663296 C.3       1 <1>         0.073015 
     28 C           1.278905    4.028733    0.056948 C.2       1 <1>         0.259336 
     29 C           0.063886    4.572418    0.755299 C.3       1 <1>         0.021444 
     30 H           2.431570   -2.030417    1.425466 H         1 <1>         0.038726 
     31 H           1.774402    0.383341    1.851868 H         1 <1>         0.040257 
     32 H           4.608246   -0.915048    2.259757 H         1 <1>         0.065291 
     33 H           0.326722    0.847888   -0.150927 H         1 <1>         0.092074 
     34 H           5.374999    0.995692    0.409780 H         1 <1>         0.059829 
     35 H          -1.045617   -1.647299   -1.155855 H         1 <1>         0.093840 
     36 H          -2.070214   -2.081695    1.710023 H         1 <1>         0.067096 
     37 H           2.502153   -1.660653   -2.596247 H         1 <1>         0.089059 
     38 H           2.640572    2.194362   -1.225038 H         1 <1>         0.061290 
     39 H           3.754872    3.036342   -0.091783 H         1 <1>         0.061290 
     40 H          -3.364811   -2.923149   -0.936976 H         1 <1>         0.064758 
     41 H          -4.230116   -0.772640    1.087689 H         1 <1>         0.064673 
     42 H          -3.116653   -0.389997   -1.768247 H         1 <1>         0.064668 
     43 H          -3.913557    1.662377    0.382478 H         1 <1>         0.058370 
     44 H          -4.824554    1.326336   -1.118107 H         1 <1>         0.058370 
     45 H          -0.435532   -3.618386    0.894837 H         1 <1>         0.210110 
     46 H          -5.104981   -3.494046    0.610647 H         1 <1>         0.210005 
     47 H          -5.437322   -1.483635   -1.432320 H         1 <1>         0.210004 
     48 H          -2.105973    2.268991   -1.070659 H         1 <1>         0.209508 
     49 H           0.377972    5.113614    1.659506 H         1 <1>         0.033023 
     50 H          -0.608986    3.749782    1.040893 H         1 <1>         0.033023 
     51 H          -0.480227    5.262094    0.092631 H         1 <1>         0.033023 
@<TRIPOS>BOND
     1   14    1 1    
     2   20    1 1    
     3    2   15 1    
     4   19    2 1    
     5   15    3 1    
     6    3   22 1    
     7    4   19 1    
     8   26    4 1    
     9   23    5 1    
    10    5   28 1    
    11   21    6 1    
    12    6   45 1    
    13   24    7 1    
    14    7   46 1    
    15   25    8 1    
    16    8   47 1    
    17   20    9 2    
    18   27   10 1    
    19   10   48 1    
    20   28   11 2    
    21   13   12 1    
    22   12   14 1    
    23   12   17 1    
    24   12   30 1    
    25   15   13 1    
    26   13   16 1    
    27   13   31 1    
    28   18   14 1    
    29   14   32 1    
    30   15   33 1    
    31   16   18 2    
    32   16   23 1    
    33   17   20 1    
    34   22   17 2    
    35   18   34 1    
    36   19   21 1    
    37   19   35 1    
    38   24   21 1    
    39   21   36 1    
    40   22   37 1    
    41   23   38 1    
    42   23   39 1    
    43   25   24 1    
    44   24   40 1    
    45   26   25 1    
    46   25   41 1    
    47   26   27 1    
    48   26   42 1    
    49   27   43 1    
    50   27   44 1    
    51   28   29 1    
    52   29   49 1    
    53   29   50 1    
    54   29   51 1    
@<TRIPOS>SUBSTRUCTURE
     1 ****       12 TEMP              0 ****  ****    0 ROOT 
@<TRIPOS>NORMAL
@<TRIPOS>FF_PBC
FORCE_FIELD_SETUP_FEATURE Force Field Setup information
v1.0  0 0.000000 0.000000 0.000000 0.000000 0.000000 0.000000 NONE 0 0 0 0 1 0 0 0 0 0 0 0 0
