@<TRIPOS>MOLECULE
MOL012948
   77    79     1     1     0
SMALL
GASTEIGER


@<TRIPOS>ATOM
      1 C          -1.874553   -1.127643   -3.777184 C.3       1 <1>         0.018235 
      2 C          -1.572733   -2.541126   -3.357834 C.2       1 <1>         0.156765 
      3 C          -0.398359   -3.244946   -3.896069 C.2       1 <1>        -0.017210 
      4 C           0.615465   -2.559756   -4.444788 C.2       1 <1>        -0.033891 
      5 C           0.576736   -1.039886   -4.450666 C.3       1 <1>         0.110840 
      6 C          -0.877496   -0.622451   -4.861379 C.3       1 <1>         0.008343 
      7 C          -1.019966    0.923569   -5.016817 C.3       1 <1>        -0.056178 
      8 C          -1.241416   -1.259266   -6.242255 C.3       1 <1>        -0.056178 
      9 O          -2.306339   -3.109805   -2.564321 O.2       1 <1>        -0.292661 
     10 C           1.818717   -3.244032   -5.052343 C.3       1 <1>        -0.040377 
     11 O           1.469195   -0.470751   -5.426313 O.3       1 <1>        -0.379654 
     12 C           0.999535   -0.518436   -3.085244 C.2       1 <1>        -0.049762 
     13 C           1.464560   -1.272596   -2.075563 C.2       1 <1>        -0.056725 
     14 C           1.849807   -0.695190   -0.733178 C.3       1 <1>         0.077195 
     15 C           2.359105   -1.824743    0.209684 C.3       1 <1>        -0.034958 
     16 H           2.671624    0.027670   -0.876687 H         1 <1>         0.063841 
     17 O           0.678216    0.025073   -0.285044 O.3       1 <1>        -0.341636 
     18 C           0.678852    0.416975    1.102154 C.3       1 <1>         0.188912 
     19 O           0.225994   -0.695512    1.902490 O.3       1 <1>        -0.340502 
     20 C          -1.129365   -1.128482    1.621030 C.3       1 <1>         0.113006 
     21 C          -2.146346    0.050971    1.634384 C.3       1 <1>         0.111906 
     22 C          -1.662371    1.270077    0.800358 C.3       1 <1>         0.114429 
     23 C          -0.235244    1.668344    1.244133 C.3       1 <1>         0.140636 
     24 C          -1.280277   -2.109473    0.416120 C.3       1 <1>         0.073015 
     25 O          -2.665630   -2.443635    0.197088 O.3       1 <1>        -0.392366 
     26 O          -1.722382    1.071641   -0.623670 O.3       1 <1>        -0.386391 
     27 O          -2.343741    0.431014    3.014412 O.3       1 <1>        -0.386488 
     28 O          -0.336139    2.288747    2.548789 O.3       1 <1>        -0.337760 
     29 C           0.915571    2.734419    3.105139 C.3       1 <1>         0.188431 
     30 O           1.656818    1.616590    3.620815 O.3       1 <1>        -0.343067 
     31 C           0.949270    0.902997    4.654971 C.3       1 <1>         0.087307 
     32 C           0.668075    1.838588    5.860150 C.3       1 <1>         0.109478 
     33 C          -0.143366    3.067182    5.373459 C.3       1 <1>         0.113972 
     34 C           0.633150    3.763475    4.230654 C.3       1 <1>         0.134123 
     35 C           1.836526   -0.294262    5.073552 C.3       1 <1>        -0.036060 
     36 O          -0.061575    1.124782    6.876325 O.3       1 <1>        -0.386579 
     37 O          -0.385950    3.993877    6.449421 O.3       1 <1>        -0.386402 
     38 O           1.849616    4.305493    4.790668 O.3       1 <1>        -0.384104 
     39 H          -2.909123   -1.069017   -4.148553 H         1 <1>         0.035125 
     40 H          -1.809017   -0.506737   -2.877212 H         1 <1>         0.035125 
     41 H          -0.388460   -4.331714   -3.833977 H         1 <1>         0.065274 
     42 H          -2.038544    1.181999   -5.343128 H         1 <1>         0.023618 
     43 H          -0.315040    1.304211   -5.770968 H         1 <1>         0.023618 
     44 H          -0.838854    1.457968   -4.075561 H         1 <1>         0.023618 
     45 H          -2.230692   -0.916926   -6.582568 H         1 <1>         0.023618 
     46 H          -0.503402   -0.967161   -7.004555 H         1 <1>         0.023618 
     47 H          -1.276509   -2.357367   -6.211160 H         1 <1>         0.023618 
     48 H           2.737304   -2.928321   -4.535074 H         1 <1>         0.027546 
     49 H           1.891689   -2.977979   -6.118925 H         1 <1>         0.027546 
     50 H           1.749421   -4.340682   -4.981217 H         1 <1>         0.027546 
     51 H           2.389922   -0.601403   -5.228843 H         1 <1>         0.211064 
     52 H           0.938055    0.551413   -2.901487 H         1 <1>         0.060147 
     53 H           1.575603   -2.350354   -2.182754 H         1 <1>         0.059532 
     54 H           2.690079   -1.436684    1.182547 H         1 <1>         0.025765 
     55 H           1.575841   -2.573005    0.381086 H         1 <1>         0.025765 
     56 H           3.219723   -2.330299   -0.256261 H         1 <1>         0.025765 
     57 H           1.691804    0.718515    1.407345 H         1 <1>         0.093770 
     58 H          -1.403547   -1.751701    2.488648 H         1 <1>         0.064668 
     59 H          -3.118461   -0.286164    1.237604 H         1 <1>         0.064673 
     60 H          -2.346959    2.112388    0.992908 H         1 <1>         0.064768 
     61 H           0.114577    2.431779    0.529098 H         1 <1>         0.067477 
     62 H          -0.869058   -1.706508   -0.514916 H         1 <1>         0.058370 
     63 H          -0.733653   -3.040204    0.641442 H         1 <1>         0.058370 
     64 H          -2.794376   -3.007381   -0.564816 H         1 <1>         0.209508 
     65 H          -1.006135    0.525282   -0.927503 H         1 <1>         0.210005 
     66 H          -2.972725    1.134358    3.140427 H         1 <1>         0.210004 
     67 H           1.529124    3.250051    2.349448 H         1 <1>         0.093753 
     68 H          -0.006515    0.501794    4.276792 H         1 <1>         0.062075 
     69 H           1.636498    2.180392    6.263766 H         1 <1>         0.064584 
     70 H          -1.124531    2.717323    5.011256 H         1 <1>         0.064757 
     71 H           0.009411    4.582119    3.831162 H         1 <1>         0.067095 
     72 H           1.351775   -0.881445    5.868743 H         1 <1>         0.025536 
     73 H           2.010883   -0.949495    4.205825 H         1 <1>         0.025536 
     74 H           2.809157    0.067523    5.440022 H         1 <1>         0.025536 
     75 H          -0.269198    1.682184    7.620266 H         1 <1>         0.210002 
     76 H           0.425001    4.377445    6.770171 H         1 <1>         0.210005 
     77 H           2.391747    4.760103    4.153588 H         1 <1>         0.210110 
@<TRIPOS>BOND
     1    1    2 1    
     2    1    6 1    
     3    1   39 1    
     4    1   40 1    
     5    2    3 1    
     6    2    9 2    
     7    3    4 2    
     8    3   41 1    
     9    4    5 1    
    10    4   10 1    
    11    5    6 1    
    12    5   11 1    
    13    5   12 1    
    14    6    7 1    
    15    6    8 1    
    16    7   42 1    
    17    7   43 1    
    18    7   44 1    
    19    8   45 1    
    20    8   46 1    
    21    8   47 1    
    22   10   48 1    
    23   10   49 1    
    24   10   50 1    
    25   11   51 1    
    26   12   13 2    
    27   12   52 1    
    28   13   14 1    
    29   13   53 1    
    30   14   15 1    
    31   14   16 1    
    32   14   17 1    
    33   15   54 1    
    34   15   55 1    
    35   15   56 1    
    36   17   18 1    
    37   18   19 1    
    38   18   23 1    
    39   18   57 1    
    40   19   20 1    
    41   20   21 1    
    42   20   24 1    
    43   20   58 1    
    44   21   22 1    
    45   21   27 1    
    46   21   59 1    
    47   22   23 1    
    48   22   26 1    
    49   22   60 1    
    50   23   28 1    
    51   23   61 1    
    52   24   25 1    
    53   24   62 1    
    54   24   63 1    
    55   25   64 1    
    56   26   65 1    
    57   27   66 1    
    58   28   29 1    
    59   29   30 1    
    60   29   34 1    
    61   29   67 1    
    62   30   31 1    
    63   31   32 1    
    64   31   35 1    
    65   31   68 1    
    66   32   33 1    
    67   32   36 1    
    68   32   69 1    
    69   33   34 1    
    70   33   37 1    
    71   33   70 1    
    72   34   38 1    
    73   34   71 1    
    74   35   72 1    
    75   35   73 1    
    76   35   74 1    
    77   36   75 1    
    78   37   76 1    
    79   38   77 1    
@<TRIPOS>SUBSTRUCTURE
     1 ****        1 TEMP              0 ****  ****    0 ROOT 
@<TRIPOS>NORMAL
@<TRIPOS>FF_PBC
FORCE_FIELD_SETUP_FEATURE Force Field Setup information
v1.0  0 0.000000 0.000000 0.000000 0.000000 0.000000 0.000000 NONE 0 0 0 0 1 0 0 0 0 0 0 0 0
