@<TRIPOS>MOLECULE
MOL003578
   81    85     1     1     0
SMALL
GASTEIGER


@<TRIPOS>ATOM
      1 C          -1.856239   -0.963716    0.786179 C.3       1 <1>        -0.019425 
      2 C          -3.139506   -1.853435    0.858833 C.3       1 <1>        -0.019309 
      3 C          -0.457936   -1.681062    0.795997 C.3       1 <1>        -0.028928 
      4 C          -2.627218   -1.171354    2.133060 C.3       1 <1>        -0.040115 
      5 C          -1.937181    0.581667    0.506905 C.3       1 <1>        -0.046048 
      6 C          -3.060686   -3.404030    0.878473 C.3       1 <1>        -0.027341 
      7 C          -4.425728   -1.285507    0.188341 C.3       1 <1>        -0.044216 
      8 C           0.608783   -0.900367   -0.055637 C.3       1 <1>        -0.023053 
      9 C          -0.584989   -3.184185    0.388366 C.3       1 <1>        -0.048890 
     10 C          -0.728179    1.209301   -0.237428 C.3       1 <1>        -0.046326 
     11 C          -4.265231   -4.031348    1.677400 C.3       1 <1>        -0.005572 
     12 C          -1.643243   -3.943374    1.229609 C.3       1 <1>        -0.048835 
     13 C          -5.583565   -2.319836    0.258518 C.3       1 <1>        -0.025814 
     14 C           0.614497    0.635009    0.305468 C.3       1 <1>        -0.023313 
     15 C           2.087147   -1.266930    0.245114 C.3       1 <1>        -0.046569 
     16 C           0.368891   -1.227048   -1.576904 C.3       1 <1>        -0.058784 
     17 C          -5.512256   -3.076920    1.611601 C.3       1 <1>         0.060638 
     18 C          -3.942799   -4.298677    3.180791 C.3       1 <1>        -0.057190 
     19 C          -4.638294   -5.417244    1.055780 C.3       1 <1>        -0.057190 
     20 C           1.906247    1.166621   -0.409681 C.3       1 <1>        -0.032516 
     21 C           0.753626    0.931088    1.840354 C.3       1 <1>        -0.058793 
     22 C           2.898887   -0.029747   -0.243301 C.3       1 <1>        -0.048935 
     23 O          -5.463893   -2.109643    2.678641 O.3       1 <1>        -0.391248 
     24 C           2.582777    2.551223   -0.076158 C.3       1 <1>        -0.040256 
     25 C           3.822453    2.737535   -1.030468 C.3       1 <1>        -0.046743 
     26 C           1.609662    3.764464   -0.174222 C.3       1 <1>        -0.062137 
     27 C           4.356360    4.186075   -1.227691 C.3       1 <1>        -0.034275 
     28 C           5.559238    4.211258   -2.151133 C.2       1 <1>        -0.085278 
     29 C           5.802361    5.104147   -3.124190 C.2       1 <1>        -0.079617 
     30 C           7.009373    4.964011   -4.029712 C.3       1 <1>        -0.044050 
     31 C           4.926473    6.304478   -3.425397 C.3       1 <1>        -0.044050 
     32 H          -0.077124   -1.716771    1.827584 H         1 <1>         0.031173 
     33 H          -3.210302   -3.656548   -0.184491 H         1 <1>         0.031227 
     34 H          -2.125413   -1.760507    2.909940 H         1 <1>         0.027645 
     35 H          -3.330475   -0.424105    2.533071 H         1 <1>         0.027645 
     36 H          -2.831440    0.819284   -0.084891 H         1 <1>         0.027104 
     37 H          -2.028825    1.145066    1.450768 H         1 <1>         0.027104 
     38 H          -4.216139   -1.060016   -0.869919 H         1 <1>         0.027166 
     39 H          -4.756510   -0.356963    0.680746 H         1 <1>         0.027166 
     40 H          -0.907524   -3.303330   -0.655113 H         1 <1>         0.026837 
     41 H           0.395604   -3.677282    0.497852 H         1 <1>         0.026837 
     42 H          -0.824655    1.050216   -1.319698 H         1 <1>         0.027095 
     43 H          -0.793901    2.296432   -0.111608 H         1 <1>         0.027095 
     44 H          -1.384617   -3.848926    2.292770 H         1 <1>         0.026838 
     45 H          -1.594000   -5.016157    0.979902 H         1 <1>         0.026838 
     46 H          -5.521852   -3.037247   -0.574514 H         1 <1>         0.029038 
     47 H          -6.550701   -1.797711    0.161055 H         1 <1>         0.029038 
     48 H           2.431536   -2.195068   -0.238468 H         1 <1>         0.027086 
     49 H           2.230395   -1.420628    1.326229 H         1 <1>         0.027086 
     50 H          -0.699459   -1.175637   -1.836341 H         1 <1>         0.023533 
     51 H           0.910434   -0.591612   -2.284497 H         1 <1>         0.023533 
     52 H           0.710473   -2.243966   -1.819902 H         1 <1>         0.023533 
     53 H          -6.432900   -3.672520    1.748355 H         1 <1>         0.059852 
     54 H          -4.848295   -4.644102    3.703790 H         1 <1>         0.023587 
     55 H          -3.178143   -5.080884    3.295665 H         1 <1>         0.023587 
     56 H          -3.592796   -3.395657    3.696443 H         1 <1>         0.023587 
     57 H          -5.453094   -5.896436    1.621267 H         1 <1>         0.023587 
     58 H          -4.970944   -5.319182    0.012602 H         1 <1>         0.023587 
     59 H          -3.777003   -6.100660    1.073919 H         1 <1>         0.023587 
     60 H           1.626512    1.294085   -1.463394 H         1 <1>         0.030879 
     61 H          -0.009713    0.446288    2.458413 H         1 <1>         0.023533 
     62 H           1.733268    0.634530    2.237609 H         1 <1>         0.023533 
     63 H           0.649339    2.002732    2.041209 H         1 <1>         0.023533 
     64 H           3.682914    0.186759    0.501420 H         1 <1>         0.026837 
     65 H           3.395204   -0.240149   -1.205425 H         1 <1>         0.026837 
     66 H          -6.211559   -1.518748    2.694870 H         1 <1>         0.209800 
     67 H           2.952829    2.538575    0.963005 H         1 <1>         0.030105 
     68 H           4.653044    2.119614   -0.651474 H         1 <1>         0.027088 
     69 H           3.583866    2.380622   -2.045619 H         1 <1>         0.027088 
     70 H           2.114767    4.704995    0.085125 H         1 <1>         0.023250 
     71 H           0.787240    3.705992    0.542576 H         1 <1>         0.023250 
     72 H           1.194056    3.843694   -1.189808 H         1 <1>         0.023250 
     73 H           3.550008    4.772345   -1.685154 H         1 <1>         0.030748 
     74 H           4.632826    4.625797   -0.256837 H         1 <1>         0.030748 
     75 H           6.281500    3.409001   -1.994243 H         1 <1>         0.057145 
     76 H           7.584098    4.042378   -3.853891 H         1 <1>         0.027427 
     77 H           6.672675    4.955584   -5.077521 H         1 <1>         0.027427 
     78 H           7.684754    5.820142   -3.884904 H         1 <1>         0.027427 
     79 H           5.543942    7.146693   -3.771460 H         1 <1>         0.027427 
     80 H           4.366100    6.673588   -2.556143 H         1 <1>         0.027427 
     81 H           4.219784    6.041857   -4.226930 H         1 <1>         0.027427 
@<TRIPOS>BOND
     1    1    2 1    
     2    1    3 1    
     3    1    4 1    
     4    1    5 1    
     5    2    4 1    
     6    2    6 1    
     7    2    7 1    
     8    3    8 1    
     9    3    9 1    
    10    3   32 1    
    11    4   34 1    
    12    4   35 1    
    13    5   10 1    
    14    5   36 1    
    15    5   37 1    
    16    6   11 1    
    17    6   12 1    
    18    6   33 1    
    19    7   13 1    
    20    7   38 1    
    21    7   39 1    
    22    8   14 1    
    23    8   15 1    
    24    8   16 1    
    25    9   12 1    
    26    9   40 1    
    27    9   41 1    
    28   10   14 1    
    29   10   42 1    
    30   10   43 1    
    31   11   17 1    
    32   11   18 1    
    33   11   19 1    
    34   12   44 1    
    35   12   45 1    
    36   13   17 1    
    37   13   46 1    
    38   13   47 1    
    39   14   20 1    
    40   14   21 1    
    41   15   22 1    
    42   15   48 1    
    43   15   49 1    
    44   16   50 1    
    45   16   51 1    
    46   16   52 1    
    47   17   23 1    
    48   17   53 1    
    49   18   54 1    
    50   18   55 1    
    51   18   56 1    
    52   19   57 1    
    53   19   58 1    
    54   19   59 1    
    55   20   22 1    
    56   20   24 1    
    57   20   60 1    
    58   21   61 1    
    59   21   62 1    
    60   21   63 1    
    61   22   64 1    
    62   22   65 1    
    63   23   66 1    
    64   24   25 1    
    65   24   26 1    
    66   24   67 1    
    67   25   27 1    
    68   25   68 1    
    69   25   69 1    
    70   26   70 1    
    71   26   71 1    
    72   26   72 1    
    73   27   28 1    
    74   27   73 1    
    75   27   74 1    
    76   28   29 2    
    77   28   75 1    
    78   29   30 1    
    79   29   31 1    
    80   30   76 1    
    81   30   77 1    
    82   30   78 1    
    83   31   79 1    
    84   31   80 1    
    85   31   81 1    
@<TRIPOS>SUBSTRUCTURE
     1 ****        1 TEMP              0 ****  ****    0 ROOT 
@<TRIPOS>NORMAL
@<TRIPOS>FF_PBC
FORCE_FIELD_SETUP_FEATURE Force Field Setup information
v1.0  0 0.000000 0.000000 0.000000 0.000000 0.000000 0.000000 NONE 0 0 0 0 1 0 0 0 0 0 0 0 0
