@<TRIPOS>MOLECULE
MOL004696
   82    86     1     1     0
SMALL
GASTEIGER


@<TRIPOS>ATOM
      1 C          -0.075155    1.760955    0.680763 C.3       1 <1>         0.001211 
      2 C           1.218326    1.035327    1.024516 C.2       1 <1>        -0.041177 
      3 C           1.822296    1.125220    2.238522 C.2       1 <1>        -0.054572 
      4 C          -0.928122    1.104827   -0.509859 C.3       1 <1>        -0.015850 
      5 C           1.310087    1.961229    3.426240 C.3       1 <1>         0.041279 
      6 C          -0.779807   -0.047024   -2.979902 C.3       1 <1>        -0.021728 
      7 C           1.745090    0.199641   -0.072506 C.2       1 <1>        -0.061680 
      8 C           1.204583    0.079743   -1.290780 C.2       1 <1>        -0.079573 
      9 C          -1.536212   -0.255392   -0.036512 C.3       1 <1>        -0.045983 
     10 C          -0.061821    0.753467   -1.793250 C.3       1 <1>        -0.010741 
     11 C           0.199583   -0.380910   -4.172002 C.3       1 <1>        -0.044446 
     12 C           2.590693   -0.900133    3.445850 C.3       1 <1>        -0.031141 
     13 C          -1.299750   -1.397726   -2.370555 C.3       1 <1>        -0.025215 
     14 C          -1.859070   -2.476384   -3.383414 C.3       1 <1>         0.020282 
     15 C          -0.352942   -1.403256   -5.209941 C.3       1 <1>        -0.025737 
     16 C           0.343843    3.215257    0.286529 C.3       1 <1>        -0.054936 
     17 O          -0.962661    2.464381    4.364875 O.3       1 <1>        -0.390817 
     18 C          -1.896838    0.832586   -3.658203 C.3       1 <1>        -0.058735 
     19 C          -3.237634   -2.123695   -4.029930 C.3       1 <1>        -0.054830 
     20 O          -3.276248   -3.892993   -1.886367 O.3       1 <1>        -0.394374 
     21 C          -0.851555    1.725176    2.045154 C.3       1 <1>        -0.016023 
     22 C          -0.142477    2.501831    3.176294 C.3       1 <1>         0.067441 
     23 C          -0.787347   -2.712209   -4.499598 C.3       1 <1>         0.062974 
     24 C           1.395188    1.013131    4.687610 C.3       1 <1>        -0.038670 
     25 C          -2.213043   -1.127028   -1.135614 C.3       1 <1>        -0.048508 
     26 C           3.067477    0.327834    2.606919 C.3       1 <1>        -0.025318 
     27 O          -1.298308   -3.638383   -5.478865 O.3       1 <1>        -0.391162 
     28 C           1.350734   -0.494050    4.312099 C.3       1 <1>        -0.046636 
     29 C           2.205139    3.214843    3.736961 C.3       1 <1>         0.055890 
     30 C          -2.066534   -3.859990   -2.670204 C.3       1 <1>         0.052200 
     31 C          -2.086372    2.107584   -0.860878 C.3       1 <1>        -0.058207 
     32 O           1.594097    3.975644    4.797538 O.3       1 <1>        -0.394059 
     33 C           3.762283   -1.386165    4.354162 C.3       1 <1>        -0.059522 
     34 C           2.187463   -2.077016    2.507704 C.3       1 <1>        -0.059522 
     35 H           2.643031   -0.397255    0.057857 H         1 <1>         0.061744 
     36 H           1.795232   -0.575429   -1.920613 H         1 <1>         0.057525 
     37 H          -2.312173   -0.078929    0.725536 H         1 <1>         0.027105 
     38 H          -0.737731   -0.859822    0.423417 H         1 <1>         0.027105 
     39 H           0.311193    1.670232   -2.268544 H         1 <1>         0.035395 
     40 H           0.494720    0.550095   -4.684063 H         1 <1>         0.027158 
     41 H           1.128098   -0.873948   -3.878316 H         1 <1>         0.027158 
     42 H          -0.401016   -1.872562   -1.945789 H         1 <1>         0.031300 
     43 H           0.450334   -1.647157   -5.928128 H         1 <1>         0.029039 
     44 H          -1.176773   -1.026608   -5.827372 H         1 <1>         0.029039 
     45 H           1.155093    3.598669    0.911540 H         1 <1>         0.023839 
     46 H          -0.498896    3.915579    0.378686 H         1 <1>         0.023839 
     47 H           0.728282    3.272887   -0.738149 H         1 <1>         0.023839 
     48 H          -1.830169    2.845466    4.270120 H         1 <1>         0.209815 
     49 H          -1.681162    1.901476   -3.544565 H         1 <1>         0.023534 
     50 H          -2.905844    0.626618   -3.291283 H         1 <1>         0.023534 
     51 H          -1.977635    0.722978   -4.743935 H         1 <1>         0.023534 
     52 H          -3.605850   -2.978215   -4.618042 H         1 <1>         0.023667 
     53 H          -3.996459   -1.909022   -3.265350 H         1 <1>         0.023667 
     54 H          -3.203643   -1.273814   -4.715882 H         1 <1>         0.023667 
     55 H          -3.429175   -4.726713   -1.450798 H         1 <1>         0.209420 
     56 H          -1.863472    2.138784    1.987980 H         1 <1>         0.029895 
     57 H          -0.953087    0.696277    2.415612 H         1 <1>         0.029895 
     58 H          -0.112231    3.564728    2.881329 H         1 <1>         0.060283 
     59 H           0.107400   -3.159869   -4.029376 H         1 <1>         0.059936 
     60 H           2.343169    1.150985    5.229131 H         1 <1>         0.027536 
     61 H           0.620042    1.219865    5.438390 H         1 <1>         0.027536 
     62 H          -2.453089   -2.077195   -0.636319 H         1 <1>         0.026847 
     63 H          -3.172606   -0.685738   -1.430067 H         1 <1>         0.026847 
     64 H           3.753859    0.021115    1.812204 H         1 <1>         0.031555 
     65 H           3.717642    0.950423    3.230311 H         1 <1>         0.031555 
     66 H          -0.673461   -3.859641   -6.162504 H         1 <1>         0.209801 
     67 H           1.304651   -1.116085    5.221190 H         1 <1>         0.027081 
     68 H           0.411949   -0.666339    3.766662 H         1 <1>         0.027081 
     69 H           3.227171    2.963375    4.057837 H         1 <1>         0.056653 
     70 H           2.311243    3.851794    2.847759 H         1 <1>         0.056653 
     71 H          -2.162092   -4.658827   -3.425669 H         1 <1>         0.056334 
     72 H          -1.197594   -4.107654   -2.037858 H         1 <1>         0.056334 
     73 H          -2.933172    1.635049   -1.356477 H         1 <1>         0.023552 
     74 H          -1.718716    2.927144   -1.493442 H         1 <1>         0.023552 
     75 H          -2.554671    2.589147    0.000221 H         1 <1>         0.023552 
     76 H           2.070518    4.767057    5.031489 H         1 <1>         0.209434 
     77 H           4.645312   -1.624897    3.741475 H         1 <1>         0.023508 
     78 H           4.050292   -0.617350    5.086428 H         1 <1>         0.023508 
     79 H           3.476748   -2.292470    4.910070 H         1 <1>         0.023508 
     80 H           1.373686   -1.782250    1.829235 H         1 <1>         0.023508 
     81 H           1.838889   -2.935653    3.101985 H         1 <1>         0.023508 
     82 H           3.043366   -2.403914    1.897696 H         1 <1>         0.023508 
@<TRIPOS>BOND
     1    1    2 1    
     2    1    4 1    
     3    1   16 1    
     4    1   21 1    
     5    2    3 2    
     6    2    7 1    
     7    3    5 1    
     8    3   26 1    
     9    4    9 1    
    10    4   10 1    
    11    4   31 1    
    12    5   22 1    
    13    5   24 1    
    14    5   29 1    
    15   10    6 1    
    16    6   11 1    
    17    6   13 1    
    18    6   18 1    
    19    7    8 2    
    20    7   35 1    
    21    8   10 1    
    22    8   36 1    
    23    9   25 1    
    24    9   37 1    
    25    9   38 1    
    26   10   39 1    
    27   11   15 1    
    28   11   40 1    
    29   11   41 1    
    30   26   12 1    
    31   12   28 1    
    32   12   33 1    
    33   12   34 1    
    34   13   14 1    
    35   13   25 1    
    36   13   42 1    
    37   14   19 1    
    38   14   23 1    
    39   14   30 1    
    40   15   23 1    
    41   15   43 1    
    42   15   44 1    
    43   16   45 1    
    44   16   46 1    
    45   16   47 1    
    46   22   17 1    
    47   17   48 1    
    48   18   49 1    
    49   18   50 1    
    50   18   51 1    
    51   19   52 1    
    52   19   53 1    
    53   19   54 1    
    54   30   20 1    
    55   20   55 1    
    56   21   22 1    
    57   21   56 1    
    58   21   57 1    
    59   22   58 1    
    60   23   27 1    
    61   23   59 1    
    62   24   28 1    
    63   24   60 1    
    64   24   61 1    
    65   25   62 1    
    66   25   63 1    
    67   26   64 1    
    68   26   65 1    
    69   27   66 1    
    70   28   67 1    
    71   28   68 1    
    72   29   32 1    
    73   29   69 1    
    74   29   70 1    
    75   30   71 1    
    76   30   72 1    
    77   31   73 1    
    78   31   74 1    
    79   31   75 1    
    80   32   76 1    
    81   33   77 1    
    82   33   78 1    
    83   33   79 1    
    84   34   80 1    
    85   34   81 1    
    86   34   82 1    
@<TRIPOS>SUBSTRUCTURE
     1 ****        1 TEMP              0 ****  ****    0 ROOT 
@<TRIPOS>NORMAL
@<TRIPOS>FF_PBC
FORCE_FIELD_SETUP_FEATURE Force Field Setup information
v1.0  0 0.000000 0.000000 0.000000 0.000000 0.000000 0.000000 NONE 0 0 0 0 1 0 0 0 0 0 0 0 0
