@<TRIPOS>MOLECULE
MOL004720
   39    41     1     1     0
SMALL
GASTEIGER


@<TRIPOS>ATOM
      1 C           0.469538   -0.504107    0.663179 C.3       1 <1>        -0.022487 
      2 C          -0.941939    0.131668    0.636785 C.3       1 <1>        -0.029403 
      3 C          -0.889313    1.320436   -0.360401 C.3       1 <1>        -0.025041 
      4 C           0.656068    1.610385   -0.360591 C.3       1 <1>        -0.014217 
      5 C           1.281762    0.800917    0.822995 C.3       1 <1>        -0.039816 
      6 C           0.228279   -1.487778    1.847403 C.3       1 <1>        -0.037912 
      7 C          -1.926810   -1.058544    0.606416 C.3       1 <1>        -0.048933 
      8 C           0.922157   -1.228124   -0.654925 C.3       1 <1>        -0.043146 
      9 C          -1.157899   -2.110711    1.475583 C.3       1 <1>        -0.049662 
     10 C           1.262541    1.120500   -1.653438 C.2       1 <1>        -0.072973 
     11 C           1.674419   -0.328947   -1.685647 C.3       1 <1>        -0.031196 
     12 C          -1.668446    2.559331    0.183694 C.3       1 <1>        -0.058999 
     13 C          -1.499985    0.962706   -1.750092 C.3       1 <1>        -0.058999 
     14 C           1.330599   -2.536214    2.165406 C.3       1 <1>        -0.061902 
     15 C           1.430545    1.923980   -2.712428 C.2       1 <1>        -0.099166 
     16 H          -1.152966    0.597459    1.618524 H         1 <1>         0.031156 
     17 H           0.885012    2.682314   -0.240590 H         1 <1>         0.035097 
     18 H           2.369549    0.650663    0.746071 H         1 <1>         0.027664 
     19 H           1.084056    1.299482    1.786569 H         1 <1>         0.027664 
     20 H           0.127637   -0.891729    2.773335 H         1 <1>         0.030355 
     21 H          -2.908918   -0.792408    1.033164 H         1 <1>         0.026837 
     22 H          -2.100352   -1.427056   -0.415546 H         1 <1>         0.026837 
     23 H           1.642012   -2.023301   -0.420103 H         1 <1>         0.027380 
     24 H           0.074276   -1.729011   -1.139192 H         1 <1>         0.027380 
     25 H          -1.715954   -2.378521    2.387847 H         1 <1>         0.026811 
     26 H          -1.012977   -3.030376    0.885577 H         1 <1>         0.026811 
     27 H           1.567168   -0.750755   -2.698769 H         1 <1>         0.031016 
     28 H           2.752906   -0.317318   -1.454771 H         1 <1>         0.031016 
     29 H          -1.614943    3.391021   -0.535619 H         1 <1>         0.023525 
     30 H          -2.727263    2.304183    0.344833 H         1 <1>         0.023525 
     31 H          -1.249048    2.915004    1.137924 H         1 <1>         0.023525 
     32 H          -1.050938    0.071940   -2.206404 H         1 <1>         0.023525 
     33 H          -2.578839    0.772609   -1.644686 H         1 <1>         0.023525 
     34 H          -1.371536    1.803227   -2.448444 H         1 <1>         0.023525 
     35 H           1.118121   -3.013074    3.135562 H         1 <1>         0.023259 
     36 H           2.310055   -2.037056    2.227653 H         1 <1>         0.023259 
     37 H           1.383384   -3.340177    1.417548 H         1 <1>         0.023259 
     38 H           1.874928    1.553504   -3.635617 H         1 <1>         0.053449 
     39 H           1.127975    2.970274   -2.682627 H         1 <1>         0.053449 
@<TRIPOS>BOND
     1    1    2 1    
     2    1    5 1    
     3    1    6 1    
     4    1    8 1    
     5    2    3 1    
     6    2    7 1    
     7    2   16 1    
     8    3    4 1    
     9    3   12 1    
    10    3   13 1    
    11    4    5 1    
    12    4   10 1    
    13    4   17 1    
    14    5   18 1    
    15    5   19 1    
    16    6    9 1    
    17    6   14 1    
    18    6   20 1    
    19    7    9 1    
    20    7   21 1    
    21    7   22 1    
    22    8   11 1    
    23    8   23 1    
    24    8   24 1    
    25    9   25 1    
    26    9   26 1    
    27   10   11 1    
    28   10   15 2    
    29   11   27 1    
    30   11   28 1    
    31   12   29 1    
    32   12   30 1    
    33   12   31 1    
    34   13   32 1    
    35   13   33 1    
    36   13   34 1    
    37   14   35 1    
    38   14   36 1    
    39   14   37 1    
    40   15   38 1    
    41   15   39 1    
@<TRIPOS>SUBSTRUCTURE
     1 ****        1 TEMP              0 ****  ****    0 ROOT 
@<TRIPOS>NORMAL
@<TRIPOS>FF_PBC
FORCE_FIELD_SETUP_FEATURE Force Field Setup information
v1.0  0 0.000000 0.000000 0.000000 0.000000 0.000000 0.000000 NONE 0 0 0 0 1 0 0 0 0 0 0 0 0
