@<TRIPOS>MOLECULE
MOL000551
   82    86     1     1     0
SMALL
GASTEIGER


@<TRIPOS>ATOM
      1 C           1.198554   -0.287674   -0.088651 C.3       1 <1>        -0.005095 
      2 C           1.317236    1.232103   -0.086643 C.2       1 <1>        -0.062908 
      3 C          -0.240664   -0.619627    0.520465 C.3       1 <1>        -0.019372 
      4 C           2.341088   -1.064060    0.664770 C.3       1 <1>        -0.042415 
      5 C           1.378736   -0.641843   -1.612819 C.3       1 <1>        -0.055323 
      6 C           2.650426    1.897995    0.219648 C.3       1 <1>        -0.004222 
      7 C           0.257002    1.995572   -0.395603 C.2       1 <1>        -0.083635 
      8 C          -1.345199   -0.048048   -0.441827 C.3       1 <1>        -0.025735 
      9 C          -0.452951   -2.166389    0.647931 C.3       1 <1>        -0.046267 
     10 C          -0.380363    0.018440    1.951029 C.3       1 <1>        -0.058491 
     11 C           3.719315   -0.347372    0.686982 C.3       1 <1>        -0.036973 
     12 C           3.568049    1.112593    1.202914 C.3       1 <1>         0.062460 
     13 C           3.346882    2.265487   -1.126126 C.3       1 <1>        -0.040331 
     14 C          -1.122702    1.473900   -0.722660 C.3       1 <1>        -0.030614 
     15 C          -2.855085   -0.463630   -0.188239 C.3       1 <1>        -0.024878 
     16 C          -1.918667   -2.608530    0.924114 C.3       1 <1>        -0.048527 
     17 C           4.947522    1.830764    1.336908 C.3       1 <1>        -0.037288 
     18 C           3.000787    1.116226    2.615837 C.2       1 <1>         0.266382 
     19 C           4.714395    2.994026   -0.965870 C.3       1 <1>        -0.034278 
     20 C          -2.919533   -2.032687   -0.122215 C.3       1 <1>        -0.025487 
     21 C          -3.696442   -0.057495   -1.447453 C.3       1 <1>        -0.044718 
     22 C          -3.478118    0.240105    1.068600 C.3       1 <1>        -0.059008 
     23 C           5.624051    2.152987   -0.023010 C.3       1 <1>        -0.046865 
     24 O           2.425464    2.250442    3.026147 O.3       1 <1>        -0.330836 
     25 O           3.074382    0.147440    3.357894 O.2       1 <1>        -0.264536 
     26 C           5.401144    3.092476   -2.364654 C.3       1 <1>        -0.059792 
     27 C           4.527114    4.450184   -0.435665 C.3       1 <1>        -0.059792 
     28 C          -4.357363   -2.695869   -0.101488 C.3       1 <1>         0.020273 
     29 C          -5.156637   -0.613029   -1.475398 C.3       1 <1>        -0.025746 
     30 C          -5.499496   -1.660025   -0.374883 C.3       1 <1>         0.062974 
     31 C          -4.424466   -3.807799   -1.204432 C.3       1 <1>         0.052200 
     32 C          -4.703801   -3.403619    1.250470 C.3       1 <1>        -0.054830 
     33 O          -5.932678   -1.043051    0.855556 O.3       1 <1>        -0.391162 
     34 O          -3.343264   -4.743892   -1.033236 O.3       1 <1>        -0.394374 
     35 H           2.428484    2.861007    0.702062 H         1 <1>         0.035619 
     36 H          -1.119139   -0.542588   -1.394282 H         1 <1>         0.031460 
     37 H          -2.472883   -2.353045   -1.077828 H         1 <1>         0.031291 
     38 H           2.474301   -2.059105    0.209277 H         1 <1>         0.027403 
     39 H           2.098338   -1.279918    1.706417 H         1 <1>         0.027403 
     40 H           0.881414    0.072732   -2.287344 H         1 <1>         0.023829 
     41 H           2.434802   -0.640113   -1.905871 H         1 <1>         0.023829 
     42 H           1.016888   -1.645007   -1.867656 H         1 <1>         0.023829 
     43 H           0.369360    3.081370   -0.423634 H         1 <1>         0.057198 
     44 H           0.168375   -2.579276    1.457951 H         1 <1>         0.027096 
     45 H          -0.150866   -2.678233   -0.274939 H         1 <1>         0.027096 
     46 H           0.435787   -0.231130    2.635179 H         1 <1>         0.023542 
     47 H          -0.422607    1.114968    1.917482 H         1 <1>         0.023542 
     48 H          -1.277806   -0.327535    2.471097 H         1 <1>         0.023542 
     49 H           4.168305   -0.382012   -0.312663 H         1 <1>         0.027586 
     50 H           4.403461   -0.903153    1.350081 H         1 <1>         0.027586 
     51 H           2.671516    2.900016   -1.723142 H         1 <1>         0.027642 
     52 H           3.520233    1.359010   -1.715518 H         1 <1>         0.027642 
     53 H          -1.316380    1.704935   -1.783307 H         1 <1>         0.031042 
     54 H          -1.813164    2.096108   -0.139621 H         1 <1>         0.031042 
     55 H          -2.214838   -2.344485    1.947365 H         1 <1>         0.026847 
     56 H          -1.917167   -3.709861    0.866851 H         1 <1>         0.026847 
     57 H           4.825754    2.769739    1.898407 H         1 <1>         0.027577 
     58 H           5.628451    1.198725    1.931113 H         1 <1>         0.027577 
     59 H          -3.727005    1.041075   -1.535657 H         1 <1>         0.027149 
     60 H          -3.193657   -0.418262   -2.360880 H         1 <1>         0.027149 
     61 H          -2.846747    1.014896    1.511633 H         1 <1>         0.023525 
     62 H          -3.703468   -0.476679    1.867125 H         1 <1>         0.023525 
     63 H          -4.407379    0.771464    0.822560 H         1 <1>         0.023525 
     64 H           6.561374    2.702976    0.164089 H         1 <1>         0.027072 
     65 H           5.900960    1.208156   -0.515427 H         1 <1>         0.027072 
     66 H           2.092809    2.185793    3.914354 H         1 <1>         0.220226 
     67 H           6.374042    3.601627   -2.285799 H         1 <1>         0.023499 
     68 H           4.772068    3.658818   -3.068937 H         1 <1>         0.023499 
     69 H           5.578633    2.095417   -2.797663 H         1 <1>         0.023499 
     70 H           5.503935    4.952147   -0.358215 H         1 <1>         0.023499 
     71 H           4.054250    4.499905    0.552998 H         1 <1>         0.023499 
     72 H           3.901546    5.031242   -1.130968 H         1 <1>         0.023499 
     73 H          -5.347847   -1.069268   -2.462152 H         1 <1>         0.029039 
     74 H          -5.873211    0.220717   -1.386242 H         1 <1>         0.029039 
     75 H          -6.395936   -2.215494   -0.710296 H         1 <1>         0.059936 
     76 H          -5.380723   -4.354590   -1.154922 H         1 <1>         0.056334 
     77 H          -4.352461   -3.348689   -2.203875 H         1 <1>         0.056334 
     78 H          -5.750673   -3.744883    1.242881 H         1 <1>         0.023667 
     79 H          -4.588436   -2.728418    2.109470 H         1 <1>         0.023667 
     80 H          -4.084573   -4.293937    1.428023 H         1 <1>         0.023667 
     81 H          -6.689367   -0.469876    0.771760 H         1 <1>         0.209801 
     82 H          -3.327309   -5.433744   -1.690324 H         1 <1>         0.209420 
@<TRIPOS>BOND
     1    1    2 1    
     2    1    3 1    
     3    1    4 1    
     4    1    5 1    
     5    2    6 1    
     6    2    7 2    
     7    3    8 1    
     8    3    9 1    
     9    3   10 1    
    10    4   11 1    
    11    4   38 1    
    12    4   39 1    
    13    5   40 1    
    14    5   41 1    
    15    5   42 1    
    16    6   12 1    
    17    6   13 1    
    18    6   35 1    
    19    7   14 1    
    20    7   43 1    
    21    8   14 1    
    22    8   15 1    
    23    8   36 1    
    24    9   16 1    
    25    9   44 1    
    26    9   45 1    
    27   10   46 1    
    28   10   47 1    
    29   10   48 1    
    30   11   12 1    
    31   11   49 1    
    32   11   50 1    
    33   12   17 1    
    34   12   18 1    
    35   13   19 1    
    36   13   51 1    
    37   13   52 1    
    38   14   53 1    
    39   14   54 1    
    40   15   20 1    
    41   15   21 1    
    42   15   22 1    
    43   16   20 1    
    44   16   55 1    
    45   16   56 1    
    46   17   23 1    
    47   17   57 1    
    48   17   58 1    
    49   18   24 1    
    50   18   25 2    
    51   19   23 1    
    52   19   26 1    
    53   19   27 1    
    54   20   28 1    
    55   20   37 1    
    56   21   29 1    
    57   21   59 1    
    58   21   60 1    
    59   22   61 1    
    60   22   62 1    
    61   22   63 1    
    62   23   64 1    
    63   23   65 1    
    64   24   66 1    
    65   26   67 1    
    66   26   68 1    
    67   26   69 1    
    68   27   70 1    
    69   27   71 1    
    70   27   72 1    
    71   28   30 1    
    72   28   31 1    
    73   28   32 1    
    74   29   30 1    
    75   29   73 1    
    76   29   74 1    
    77   30   33 1    
    78   30   75 1    
    79   31   34 1    
    80   31   76 1    
    81   31   77 1    
    82   32   78 1    
    83   32   79 1    
    84   32   80 1    
    85   33   81 1    
    86   34   82 1    
@<TRIPOS>SUBSTRUCTURE
     1 ****        1 TEMP              0 ****  ****    0 ROOT 
@<TRIPOS>NORMAL
@<TRIPOS>FF_PBC
FORCE_FIELD_SETUP_FEATURE Force Field Setup information
v1.0  0 0.000000 0.000000 0.000000 0.000000 0.000000 0.000000 NONE 0 0 0 0 1 0 0 0 0 0 0 0 0
