@<TRIPOS>MOLECULE
MOL000126
   26    27     1     1     0
SMALL
GASTEIGER


@<TRIPOS>ATOM
      1 C          -0.468158    0.140617    0.998455 C.3       1 <1>        -0.014485 
      2 C          -0.647472    0.662768   -0.450894 C.3       1 <1>        -0.025534 
      3 C          -1.241365   -1.144185    0.601901 C.3       1 <1>        -0.042663 
      4 C           0.986722   -0.233069    1.191617 C.2       1 <1>        -0.072991 
      5 C          -0.761748   -0.839022   -0.841485 C.3       1 <1>        -0.034499 
      6 C          -1.985971    1.438166   -0.653520 C.3       1 <1>        -0.059017 
      7 C           0.516908    1.505010   -1.057920 C.3       1 <1>        -0.059017 
      8 C           1.520064   -1.312082    0.265368 C.3       1 <1>        -0.031447 
      9 C           1.755990    0.354564    2.116288 C.2       1 <1>        -0.099166 
     10 C           0.638930   -1.494095   -1.016176 C.3       1 <1>        -0.045995 
     11 H          -0.921032    0.755058    1.792977 H         1 <1>         0.035088 
     12 H          -1.473844   -1.066928   -1.651705 H         1 <1>         0.030640 
     13 H          -2.330928   -1.056935    0.731118 H         1 <1>         0.027397 
     14 H          -0.902300   -2.088451    1.055899 H         1 <1>         0.027397 
     15 H          -2.143981    1.616800   -1.727899 H         1 <1>         0.023525 
     16 H          -2.873490    0.916934   -0.271191 H         1 <1>         0.023525 
     17 H          -1.928041    2.411876   -0.143842 H         1 <1>         0.023525 
     18 H           1.522129    1.089142   -0.914844 H         1 <1>         0.023525 
     19 H           0.515901    2.504574   -0.597922 H         1 <1>         0.023525 
     20 H           0.352468    1.618504   -2.139960 H         1 <1>         0.023525 
     21 H           2.566743   -1.112358   -0.016489 H         1 <1>         0.031008 
     22 H           1.516895   -2.244898    0.852417 H         1 <1>         0.031008 
     23 H           1.359590    1.131079    2.769483 H         1 <1>         0.053449 
     24 H           2.800442    0.069459    2.237746 H         1 <1>         0.053449 
     25 H           0.505287   -2.568531   -1.225285 H         1 <1>         0.027113 
     26 H           1.120563   -1.054193   -1.903838 H         1 <1>         0.027113 
@<TRIPOS>BOND
     1    1    2 1    
     2    1    3 1    
     3    1    4 1    
     4    1   11 1    
     5    2    5 1    
     6    2    6 1    
     7    2    7 1    
     8    3    5 1    
     9    3   13 1    
    10    3   14 1    
    11    4    8 1    
    12    4    9 2    
    13    5   10 1    
    14    5   12 1    
    15    6   15 1    
    16    6   16 1    
    17    6   17 1    
    18    7   18 1    
    19    7   19 1    
    20    7   20 1    
    21    8   10 1    
    22    8   21 1    
    23    8   22 1    
    24    9   23 1    
    25    9   24 1    
    26   10   25 1    
    27   10   26 1    
@<TRIPOS>SUBSTRUCTURE
     1 ****        1 TEMP              0 ****  ****    0 ROOT 
@<TRIPOS>NORMAL
@<TRIPOS>FF_PBC
FORCE_FIELD_SETUP_FEATURE Force Field Setup information
v1.0  0 0.000000 0.000000 0.000000 0.000000 0.000000 0.000000 NONE 0 0 0 0 1 0 0 0 0 0 0 0 0
