@<TRIPOS>MOLECULE
MOL004946
   43    42     1     1     0
SMALL
GASTEIGER


@<TRIPOS>ATOM
      1 C          -1.751049    2.920252   -0.000102 C.3       1 <1>        -0.052673 
      2 C          -0.444901    2.079290    0.000121 C.3       1 <1>        -0.053046 
      3 C          -1.437611    4.441887    0.000087 C.3       1 <1>        -0.046385 
      4 C          -0.745764    0.555265   -0.000096 C.3       1 <1>        -0.053057 
      5 C          -2.734682    5.295655   -0.000124 C.3       1 <1>         0.005543 
      6 C           0.566177   -0.276858    0.000124 C.3       1 <1>        -0.053057 
      7 C          -2.444208    6.777540    0.000030 C.2       1 <1>         0.130322 
      8 C           0.273901   -1.802515   -0.000100 C.3       1 <1>        -0.053057 
      9 C          -3.619002    7.720887   -0.000097 C.3       1 <1>        -0.006065 
     10 O          -1.301189    7.205612    0.000243 O.2       1 <1>        -0.297704 
     11 C           1.589902   -2.628219    0.000123 C.3       1 <1>        -0.053057 
     12 C           1.302987   -4.154845   -0.000103 C.3       1 <1>        -0.053065 
     13 C           2.620343   -4.978163    0.000123 C.3       1 <1>        -0.053306 
     14 C           2.334132   -6.504673   -0.000106 C.3       1 <1>        -0.055911 
     15 C           3.649935   -7.325896    0.000120 C.3       1 <1>        -0.065276 
     16 H          -2.346204    2.669717   -0.893675 H         1 <1>         0.026539 
     17 H          -2.346597    2.669579    0.893198 H         1 <1>         0.026539 
     18 H           0.149790    2.332066    0.893405 H         1 <1>         0.026529 
     19 H           0.150195    2.332232   -0.892811 H         1 <1>         0.026529 
     20 H          -0.842510    4.692824    0.893961 H         1 <1>         0.026927 
     21 H          -0.842132    4.692956   -0.893479 H         1 <1>         0.026927 
     22 H          -1.339245    0.300589   -0.893607 H         1 <1>         0.026528 
     23 H          -1.339660    0.300413    0.893119 H         1 <1>         0.026528 
     24 H          -3.331267    5.055385   -0.894211 H         1 <1>         0.034143 
     25 H          -3.331641    5.055266    0.893687 H         1 <1>         0.034143 
     26 H           1.159266   -0.020715    0.893587 H         1 <1>         0.026528 
     27 H           1.159671   -0.020537   -0.892986 H         1 <1>         0.026528 
     28 H          -0.318347   -2.060299   -0.893627 H         1 <1>         0.026528 
     29 H          -0.318766   -2.060483    0.893122 H         1 <1>         0.026528 
     30 H          -3.273371    8.766010    0.000078 H         1 <1>         0.030578 
     31 H          -4.234144    7.553603   -0.896686 H         1 <1>         0.030578 
     32 H          -4.234499    7.553421    0.896212 H         1 <1>         0.030578 
     33 H           2.181864   -2.369482    0.893538 H         1 <1>         0.026528 
     34 H           2.182274   -2.369300   -0.892940 H         1 <1>         0.026528 
     35 H           0.711450   -4.414240   -0.893544 H         1 <1>         0.026528 
     36 H           0.711032   -4.414426    0.893029 H         1 <1>         0.026528 
     37 H           3.212326   -4.719758    0.893572 H         1 <1>         0.026520 
     38 H           3.212741   -4.719571   -0.892976 H         1 <1>         0.026520 
     39 H           1.744660   -6.769550   -0.893781 H         1 <1>         0.026265 
     40 H           1.744238   -6.769740    0.893244 H         1 <1>         0.026265 
     41 H           3.424345   -8.404155   -0.000048 H         1 <1>         0.022978 
     42 H           4.247671   -7.093607    0.895315 H         1 <1>         0.022978 
     43 H           4.248091   -7.093418   -0.894742 H         1 <1>         0.022978 
@<TRIPOS>BOND
     1    1    2 1    
     2    1    3 1    
     3    1   16 1    
     4    1   17 1    
     5    2    4 1    
     6    2   18 1    
     7    2   19 1    
     8    3    5 1    
     9    3   20 1    
    10    3   21 1    
    11    4    6 1    
    12    4   22 1    
    13    4   23 1    
    14    5    7 1    
    15    5   24 1    
    16    5   25 1    
    17    6    8 1    
    18    6   26 1    
    19    6   27 1    
    20    7    9 1    
    21    7   10 2    
    22    8   11 1    
    23    8   28 1    
    24    8   29 1    
    25    9   30 1    
    26    9   31 1    
    27    9   32 1    
    28   11   12 1    
    29   11   33 1    
    30   11   34 1    
    31   12   13 1    
    32   12   35 1    
    33   12   36 1    
    34   13   14 1    
    35   13   37 1    
    36   13   38 1    
    37   14   15 1    
    38   14   39 1    
    39   14   40 1    
    40   15   41 1    
    41   15   42 1    
    42   15   43 1    
@<TRIPOS>SUBSTRUCTURE
     1 ****        1 TEMP              0 ****  ****    0 ROOT 
@<TRIPOS>NORMAL
@<TRIPOS>FF_PBC
FORCE_FIELD_SETUP_FEATURE Force Field Setup information
v1.0  0 0.000000 0.000000 0.000000 0.000000 0.000000 0.000000 NONE 0 0 0 0 1 0 0 0 0 0 0 0 0
