@<TRIPOS>MOLECULE
MOL004911
   42    45     1     1     0
SMALL
GASTEIGER


@<TRIPOS>ATOM
      1 C           3.863550   -0.370165    0.666421 C.ar      1 <1>        -0.030631 
      2 C           2.672662   -0.885460   -0.046986 C.ar      1 <1>        -0.049325 
      3 C           1.382481   -0.377114    0.224033 C.ar      1 <1>         0.011132 
      4 C           1.259289    0.742449    1.200249 C.ar      1 <1>         0.094304 
      5 C           2.399054    1.267609    1.826335 C.ar      1 <1>         0.035068 
      6 C           3.730343    0.665787    1.585045 C.ar      1 <1>         0.082198 
      7 C           2.227193    2.456090    2.743293 C.2       1 <1>        -0.050884 
      8 C           1.068465    3.123600    2.705870 C.2       1 <1>        -0.051916 
      9 C          -0.026749    2.703631    1.748168 C.3       1 <1>         0.088862 
     10 O           0.009676    1.283427    1.512149 O.3       1 <1>        -0.333527 
     11 C          -1.422071    3.018250    2.351539 C.3       1 <1>        -0.031936 
     12 C           0.152700    3.460890    0.402868 C.3       1 <1>        -0.031936 
     13 O           4.847463    1.127745    2.277917 O.3       1 <1>        -0.359161 
     14 C           0.153228   -0.935083   -0.475048 C.2       1 <1>        -0.011165 
     15 C           0.137907   -2.180768   -0.975805 C.2       1 <1>        -0.046101 
     16 C          -1.090527   -0.079399   -0.608119 C.3       1 <1>         0.079912 
     17 C          -1.063214   -2.657268   -1.754594 C.ar      1 <1>         0.005486 
     18 O          -1.855474   -0.310582   -1.798738 O.3       1 <1>        -0.339419 
     19 C          -2.068789   -1.641384   -2.130784 C.ar      1 <1>         0.086168 
     20 C          -1.238566   -3.997534   -2.142457 C.ar      1 <1>        -0.049688 
     21 C          -2.444323   -4.382708   -2.914495 C.ar      1 <1>        -0.031221 
     22 C          -3.212476   -2.009637   -2.836530 C.ar      1 <1>        -0.001316 
     23 C          -3.411486   -3.418686   -3.246137 C.ar      1 <1>         0.075062 
     24 O          -4.560553   -3.757647   -3.961739 O.3       1 <1>        -0.359749 
     25 H           4.845094   -0.801391    0.482713 H         1 <1>         0.064359 
     26 H           2.835226   -1.660772   -0.784507 H         1 <1>         0.062513 
     27 H           3.037776    2.760184    3.406555 H         1 <1>         0.062283 
     28 H           0.924699    3.987515    3.357252 H         1 <1>         0.060053 
     29 H          -1.537082    2.503005    3.318517 H         1 <1>         0.026052 
     30 H          -1.552508    4.099793    2.509305 H         1 <1>         0.026052 
     31 H          -2.214780    2.661560    1.674302 H         1 <1>         0.026052 
     32 H           1.056100    3.106584   -0.118630 H         1 <1>         0.026052 
     33 H          -0.713947    3.299172   -0.255056 H         1 <1>         0.026052 
     34 H           0.250678    4.542365    0.579851 H         1 <1>         0.026052 
     35 H           4.777722    0.885188    3.197851 H         1 <1>         0.217339 
     36 H           0.954394   -2.889626   -0.864199 H         1 <1>         0.062787 
     37 H          -0.824413    0.978509   -0.700195 H         1 <1>         0.061528 
     38 H          -1.726223   -0.227751    0.281473 H         1 <1>         0.061528 
     39 H          -0.502169   -4.750197   -1.883521 H         1 <1>         0.062503 
     40 H          -2.571332   -5.415871   -3.218251 H         1 <1>         0.064340 
     41 H          -3.951783   -1.259702   -3.091033 H         1 <1>         0.066928 
     42 H          -4.596736   -4.664410   -4.245185 H         1 <1>         0.217315 
@<TRIPOS>BOND
     1    1    2 1    
     2    1    6 2    
     3    1   25 1    
     4    2    3 2    
     5    2   26 1    
     6    3    4 1    
     7    3   14 1    
     8    4    5 2    
     9    4   10 1    
    10    5    6 1    
    11    5    7 1    
    12    6   13 1    
    13    7    8 2    
    14    7   27 1    
    15    8    9 1    
    16    8   28 1    
    17    9   10 1    
    18    9   11 1    
    19    9   12 1    
    20   11   29 1    
    21   11   30 1    
    22   11   31 1    
    23   12   32 1    
    24   12   33 1    
    25   12   34 1    
    26   13   35 1    
    27   14   15 2    
    28   14   16 1    
    29   15   17 1    
    30   15   36 1    
    31   16   18 1    
    32   16   37 1    
    33   16   38 1    
    34   17   19 1    
    35   17   20 2    
    36   18   19 1    
    37   19   22 2    
    38   20   21 1    
    39   20   39 1    
    40   21   23 2    
    41   21   40 1    
    42   22   23 1    
    43   22   41 1    
    44   23   24 1    
    45   24   42 1    
@<TRIPOS>SUBSTRUCTURE
     1 ****        1 TEMP              0 ****  ****    0 ROOT 
@<TRIPOS>NORMAL
@<TRIPOS>FF_PBC
FORCE_FIELD_SETUP_FEATURE Force Field Setup information
v1.0  0 0.000000 0.000000 0.000000 0.000000 0.000000 0.000000 NONE 0 0 0 0 1 0 0 0 0 0 0 0 0
