@<TRIPOS>MOLECULE
MOL000037
   39    39     1     1     0
SMALL
GASTEIGER


@<TRIPOS>ATOM
      1 C          -1.433028    0.802810    0.644105 C.3       1 <1>        -0.007273 
      2 C          -1.231385   -0.554340   -0.116584 C.3       1 <1>        -0.007913 
      3 C          -0.001000   -1.344948    0.431851 C.3       1 <1>        -0.024211 
      4 C           1.265432   -0.507976    0.489720 C.2       1 <1>        -0.070196 
      5 C           1.064084    0.834177    1.172879 C.3       1 <1>        -0.030696 
      6 C          -0.116367    1.625200    0.558103 C.3       1 <1>        -0.039929 
      7 C           2.460951   -0.908329    0.004870 C.2       1 <1>        -0.076440 
      8 C           3.657091    0.024839   -0.036584 C.3       1 <1>        -0.043796 
      9 C           2.735939   -2.301303   -0.534815 C.3       1 <1>        -0.043796 
     10 C          -1.270732   -0.462088   -1.642132 C.2       1 <1>        -0.075504 
     11 C          -2.435155   -0.454652   -2.310112 C.2       1 <1>        -0.099410 
     12 C           0.035390   -0.412298   -2.410777 C.3       1 <1>        -0.043740 
     13 C          -2.597896    1.638153    0.037124 C.3       1 <1>        -0.055540 
     14 C          -1.818453    0.530458    2.094420 C.2       1 <1>        -0.084602 
     15 C          -1.882670    1.458135    3.059679 C.2       1 <1>        -0.102093 
     16 H          -2.109292   -1.178570    0.125859 H         1 <1>         0.035678 
     17 H          -0.186796   -1.678284    1.464166 H         1 <1>         0.031606 
     18 H           0.067991   -2.250777   -0.183669 H         1 <1>         0.031606 
     19 H           1.940877    1.494908    1.177972 H         1 <1>         0.031033 
     20 H           0.841841    0.621480    2.230231 H         1 <1>         0.031033 
     21 H          -0.215321    2.588112    1.082179 H         1 <1>         0.027669 
     22 H           0.108106    1.872523   -0.488626 H         1 <1>         0.027669 
     23 H           4.495332   -0.386757   -0.618679 H         1 <1>         0.027435 
     24 H           3.386762    0.972970   -0.524958 H         1 <1>         0.027435 
     25 H           4.018987    0.218777    0.984167 H         1 <1>         0.027435 
     26 H           3.773685   -2.597303   -0.318111 H         1 <1>         0.027435 
     27 H           2.117413   -3.084779   -0.078620 H         1 <1>         0.027435 
     28 H           2.599091   -2.313916   -1.625355 H         1 <1>         0.027435 
     29 H          -3.396386   -0.509181   -1.801173 H         1 <1>         0.053441 
     30 H          -2.474890   -0.400134   -3.397445 H         1 <1>         0.053441 
     31 H          -0.115139   -0.067787   -3.444723 H         1 <1>         0.027437 
     32 H           0.782940    0.251742   -1.963788 H         1 <1>         0.027437 
     33 H           0.452264   -1.426851   -2.461298 H         1 <1>         0.027437 
     34 H          -2.732580    2.579361    0.591254 H         1 <1>         0.023821 
     35 H          -3.542822    1.076699    0.091140 H         1 <1>         0.023821 
     36 H          -2.397110    1.902279   -1.011678 H         1 <1>         0.023821 
     37 H          -2.080409   -0.483148    2.402015 H         1 <1>         0.057196 
     38 H          -2.166923    1.177575    4.075131 H         1 <1>         0.053192 
     39 H          -1.668272    2.512023    2.895132 H         1 <1>         0.053192 
@<TRIPOS>BOND
     1    1    2 1    
     2    1    6 1    
     3    1   13 1    
     4    1   14 1    
     5    2    3 1    
     6    2   10 1    
     7    2   16 1    
     8    3    4 1    
     9    3   17 1    
    10    3   18 1    
    11    4    5 1    
    12    4    7 2    
    13    5    6 1    
    14    5   19 1    
    15    5   20 1    
    16    6   21 1    
    17    6   22 1    
    18    7    8 1    
    19    7    9 1    
    20    8   23 1    
    21    8   24 1    
    22    8   25 1    
    23    9   26 1    
    24    9   27 1    
    25    9   28 1    
    26   10   11 2    
    27   10   12 1    
    28   11   29 1    
    29   11   30 1    
    30   12   31 1    
    31   12   32 1    
    32   12   33 1    
    33   13   34 1    
    34   13   35 1    
    35   13   36 1    
    36   14   15 2    
    37   14   37 1    
    38   15   38 1    
    39   15   39 1    
@<TRIPOS>SUBSTRUCTURE
     1 ****        1 TEMP              0 ****  ****    0 ROOT 
@<TRIPOS>NORMAL
@<TRIPOS>FF_PBC
FORCE_FIELD_SETUP_FEATURE Force Field Setup information
v1.0  0 0.000000 0.000000 0.000000 0.000000 0.000000 0.000000 NONE 0 0 0 0 1 0 0 0 0 0 0 0 0
