@<TRIPOS>MOLECULE
MOL004609
   42    44     1     1     0
SMALL
GASTEIGER


@<TRIPOS>ATOM
      1 O          -0.165388   -0.322887   -0.009701 O.3       1 <1>        -0.307624 
      2 O          -3.908578    3.980284    0.028275 O.3       1 <1>        -0.342940 
      3 O          -4.849275    1.192529   -0.040061 O.3       1 <1>        -0.345170 
      4 O          -1.122723    4.496867    0.075416 O.3       1 <1>        -0.356589 
      5 O           1.366847    3.408207    0.086399 O.2       1 <1>        -0.287016 
      6 O           5.640930   -2.694857    0.017635 O.3       1 <1>        -0.345328 
      7 O          -0.078005   -2.796241   -0.052945 O.3       1 <1>        -0.359076 
      8 O           4.267445   -5.111813   -0.045212 O.3       1 <1>        -0.357211 
      9 C          -0.645097    2.118565    0.033746 C.ar      1 <1>         0.084491 
     10 C          -1.096861    0.715857   -0.000723 C.ar      1 <1>         0.098982 
     11 C           1.165630   -0.146303    0.012304 C.2       1 <1>         0.096407 
     12 C           2.008458   -1.414001   -0.001776 C.ar      1 <1>         0.037876 
     13 C          -1.571830    3.175766    0.042825 C.ar      1 <1>         0.118472 
     14 C           0.849599    2.303429    0.057488 C.2       1 <1>         0.193596 
     15 C           1.684213    1.093417    0.044694 C.2       1 <1>         0.017004 
     16 C          -2.457170    0.415397   -0.024627 C.ar      1 <1>         0.002263 
     17 C          -3.028030    2.885187    0.017786 C.ar      1 <1>         0.136266 
     18 C          -3.480122    1.494798   -0.016150 C.ar      1 <1>         0.110695 
     19 C           1.319509   -2.735938   -0.035210 C.ar      1 <1>         0.084785 
     20 C           3.460237   -1.410528    0.015545 C.ar      1 <1>        -0.017049 
     21 C           4.237976   -2.677099    0.000897 C.ar      1 <1>         0.106203 
     22 C           2.081929   -3.938191   -0.049093 C.ar      1 <1>         0.001033 
     23 C           3.558963   -3.908114   -0.030780 C.ar      1 <1>         0.104934 
     24 C          -5.336839    3.832372    0.006698 C.3       1 <1>         0.043243 
     25 C          -5.331049   -0.160296   -0.072137 C.3       1 <1>         0.043138 
     26 C           6.421622   -1.489312    0.052077 C.3       1 <1>         0.043136 
     27 H          -1.850243    5.111474    0.078085 H         1 <1>         0.217446 
     28 H          -0.445449   -3.672127   -0.077335 H         1 <1>         0.217340 
     29 H           5.208791   -4.964916   -0.031057 H         1 <1>         0.217423 
     30 H           2.745340    1.317853    0.064182 H         1 <1>         0.068220 
     31 H          -2.737523   -0.629692   -0.049500 H         1 <1>         0.067039 
     32 H           4.004946   -0.482257    0.039452 H         1 <1>         0.065164 
     33 H           1.590063   -4.903894   -0.073440 H         1 <1>         0.067005 
     34 H          -5.775611    4.840716    0.021230 H         1 <1>         0.052872 
     35 H          -5.693340    3.290397    0.895870 H         1 <1>         0.052872 
     36 H          -5.669793    3.326709   -0.912488 H         1 <1>         0.052872 
     37 H          -6.430300   -0.123508   -0.085427 H         1 <1>         0.052871 
     38 H          -5.014597   -0.714506    0.824826 H         1 <1>         0.052871 
     39 H          -4.991644   -0.679891   -0.981338 H         1 <1>         0.052871 
     40 H           7.482663   -1.779302    0.059904 H         1 <1>         0.052871 
     41 H           6.238616   -0.872873   -0.841440 H         1 <1>         0.052871 
     42 H           6.215252   -0.909396    0.964755 H         1 <1>         0.052871 
@<TRIPOS>BOND
     1    1   10 1    
     2   11    1 1    
     3   17    2 1    
     4    2   24 1    
     5   18    3 1    
     6    3   25 1    
     7   13    4 1    
     8    4   27 1    
     9   14    5 2    
    10   21    6 1    
    11    6   26 1    
    12   19    7 1    
    13    7   28 1    
    14   23    8 1    
    15    8   29 1    
    16   10    9 1    
    17    9   13 2    
    18   14    9 1    
    19   10   16 2    
    20   12   11 1    
    21   11   15 2    
    22   12   19 1    
    23   20   12 2    
    24   13   17 1    
    25   15   14 1    
    26   15   30 1    
    27   16   18 1    
    28   16   31 1    
    29   18   17 2    
    30   19   22 2    
    31   21   20 1    
    32   20   32 1    
    33   21   23 2    
    34   22   23 1    
    35   22   33 1    
    36   24   34 1    
    37   24   35 1    
    38   24   36 1    
    39   25   37 1    
    40   25   38 1    
    41   25   39 1    
    42   26   40 1    
    43   26   41 1    
    44   26   42 1    
@<TRIPOS>SUBSTRUCTURE
     1 ****        1 TEMP              0 ****  ****    0 ROOT 
@<TRIPOS>NORMAL
@<TRIPOS>FF_PBC
FORCE_FIELD_SETUP_FEATURE Force Field Setup information
v1.0  0 0.000000 0.000000 0.000000 0.000000 0.000000 0.000000 NONE 0 0 0 0 1 0 0 0 0 0 0 0 0
