@<TRIPOS>MOLECULE
MOL002909
   43    45     1     1     0
SMALL
GASTEIGER


@<TRIPOS>ATOM
      1 C          -3.033330    2.018299    0.374847 C.ar      1 <1>         0.138123 
      2 C          -2.534778    3.340335   -0.095551 C.ar      1 <1>         0.138616 
      3 C          -1.189570    3.469423   -0.479256 C.ar      1 <1>         0.118638 
      4 C          -0.280490    2.301695   -0.407011 C.ar      1 <1>         0.087039 
      5 C          -0.722308    1.055180    0.060611 C.ar      1 <1>         0.128900 
      6 C          -2.153327    0.907033    0.446506 C.ar      1 <1>         0.139393 
      7 O           0.173601   -0.023431    0.163178 O.3       1 <1>        -0.304953 
      8 C           1.478595    0.066344   -0.157249 C.2       1 <1>         0.099005 
      9 C           1.991176    1.200617   -0.652383 C.2       1 <1>         0.017091 
     10 C           1.163768    2.395489   -0.826160 C.2       1 <1>         0.193682 
     11 C           2.377163   -1.139101    0.042038 C.ar      1 <1>         0.067689 
     12 C           1.896545   -2.503900   -0.302161 C.ar      1 <1>         0.117472 
     13 C           2.795554   -3.627472   -0.140450 C.ar      1 <1>         0.103271 
     14 C           4.171532   -3.393481    0.366632 C.ar      1 <1>        -0.026928 
     15 C           4.600120   -2.119137    0.708019 C.ar      1 <1>        -0.028680 
     16 C           3.691514   -0.955114    0.567308 C.ar      1 <1>         0.084838 
     17 O          -0.703922    4.701932   -0.924485 O.3       1 <1>        -0.356587 
     18 O           1.642489    3.415359   -1.293820 O.2       1 <1>        -0.287015 
     19 O          -4.371904    1.850853    0.746054 O.3       1 <1>        -0.355261 
     20 O           4.111787    0.320683    0.949868 O.3       1 <1>        -0.359074 
     21 O           2.389966   -4.928532   -0.454103 O.3       1 <1>        -0.357253 
     22 O          -3.350895    4.480951   -0.178494 O.3       1 <1>        -0.342884 
     23 C          -4.759963    4.449234    0.102788 C.3       1 <1>         0.043243 
     24 O           0.582655   -2.652689   -0.776950 O.3       1 <1>        -0.344590 
     25 C          -0.048343   -3.936935   -0.925651 C.3       1 <1>         0.043163 
     26 O          -2.693633   -0.311393    0.883532 O.3       1 <1>        -0.342867 
     27 C          -2.092759   -1.559772    0.513325 C.3       1 <1>         0.043244 
     28 H           3.034124    1.287918   -0.952667 H         1 <1>         0.068221 
     29 H           4.859191   -4.227815    0.475225 H         1 <1>         0.064483 
     30 H           5.610886   -1.974807    1.076689 H         1 <1>         0.064421 
     31 H          -1.373866    5.379594   -0.899897 H         1 <1>         0.217446 
     32 H          -4.557408    0.956666    1.018534 H         1 <1>         0.217504 
     33 H           4.982152    0.351607    1.332587 H         1 <1>         0.217340 
     34 H           3.098252   -5.561586   -0.482206 H         1 <1>         0.217422 
     35 H          -5.158427    5.459595   -0.072142 H         1 <1>         0.052872 
     36 H          -4.954978    4.184066    1.153033 H         1 <1>         0.052872 
     37 H          -5.284224    3.752917   -0.569552 H         1 <1>         0.052872 
     38 H          -1.094660   -3.775921   -1.215438 H         1 <1>         0.052871 
     39 H           0.421200   -4.529528   -1.723878 H         1 <1>         0.052871 
     40 H          -0.040559   -4.489818    0.025680 H         1 <1>         0.052871 
     41 H          -2.805014   -2.362882    0.752137 H         1 <1>         0.052872 
     42 H          -1.893830   -1.573538   -0.568659 H         1 <1>         0.052872 
     43 H          -1.170388   -1.748750    1.080921 H         1 <1>         0.052872 
@<TRIPOS>BOND
     1    1    2 1    
     2    1    6 2    
     3    1   19 1    
     4    2    3 2    
     5    2   22 1    
     6    3    4 1    
     7    3   17 1    
     8    4    5 2    
     9    4   10 1    
    10    5    6 1    
    11    5    7 1    
    12    6   26 1    
    13    7    8 1    
    14    8    9 2    
    15    8   11 1    
    16    9   10 1    
    17    9   28 1    
    18   10   18 2    
    19   11   12 1    
    20   11   16 2    
    21   12   13 2    
    22   12   24 1    
    23   13   14 1    
    24   13   21 1    
    25   14   15 2    
    26   14   29 1    
    27   15   16 1    
    28   15   30 1    
    29   16   20 1    
    30   17   31 1    
    31   19   32 1    
    32   20   33 1    
    33   21   34 1    
    34   22   23 1    
    35   23   35 1    
    36   23   36 1    
    37   23   37 1    
    38   24   25 1    
    39   25   38 1    
    40   25   39 1    
    41   25   40 1    
    42   26   27 1    
    43   27   41 1    
    44   27   42 1    
    45   27   43 1    
@<TRIPOS>SUBSTRUCTURE
     1 ****        1 TEMP              0 ****  ****    0 ROOT 
@<TRIPOS>NORMAL
@<TRIPOS>FF_PBC
FORCE_FIELD_SETUP_FEATURE Force Field Setup information
v1.0  0 0.000000 0.000000 0.000000 0.000000 0.000000 0.000000 NONE 0 0 0 0 1 0 0 0 0 0 0 0 0
