@<TRIPOS>MOLECULE
MOL002375
   29    29     1     1     0
SMALL
GASTEIGER


@<TRIPOS>ATOM
      1 C          -2.038509    0.471503   -0.684029 C.3       1 <1>         0.008689 
      2 C          -2.142504   -1.074480   -0.625226 C.3       1 <1>        -0.037186 
      3 C          -1.316474   -1.598078    0.584088 C.3       1 <1>        -0.049429 
      4 C           0.164431   -1.124449    0.554580 C.3       1 <1>        -0.043022 
      5 C           0.267005    0.425362    0.457889 C.3       1 <1>         0.019844 
      6 C          -0.580847    0.842731   -0.724893 C.2       1 <1>         0.136912 
      7 C          -1.695057   -1.713697   -1.970454 C.3       1 <1>        -0.062029 
      8 C           1.736101    0.950833    0.342853 C.3       1 <1>        -0.037204 
      9 C           1.774449    2.501465    0.485542 C.3       1 <1>        -0.062026 
     10 C           2.687082    0.329649    1.406433 C.3       1 <1>        -0.062026 
     11 O          -0.122984    1.433140   -1.690154 O.2       1 <1>        -0.297097 
     12 H          -2.496801    0.923249    0.209866 H         1 <1>         0.034424 
     13 H          -2.564512    0.861204   -1.570261 H         1 <1>         0.034424 
     14 H          -3.201142   -1.350724   -0.467905 H         1 <1>         0.030213 
     15 H          -1.353429   -2.699934    0.610106 H         1 <1>         0.026815 
     16 H          -1.782677   -1.227560    1.512928 H         1 <1>         0.026815 
     17 H           0.632755   -1.484033    1.484966 H         1 <1>         0.027212 
     18 H           0.698309   -1.583498   -0.291785 H         1 <1>         0.027212 
     19 H          -0.180595    0.851381    1.370660 H         1 <1>         0.037978 
     20 H          -1.733530   -2.811905   -1.903257 H         1 <1>         0.023252 
     21 H          -2.370068   -1.395962   -2.780567 H         1 <1>         0.023252 
     22 H          -0.673405   -1.415840   -2.246743 H         1 <1>         0.023252 
     23 H           2.130548    0.680123   -0.652378 H         1 <1>         0.030216 
     24 H           2.798151    2.876930    0.331383 H         1 <1>         0.023252 
     25 H           1.124186    2.998424   -0.248506 H         1 <1>         0.023252 
     26 H           1.445121    2.799548    1.492767 H         1 <1>         0.023252 
     27 H           3.674618    0.815576    1.372143 H         1 <1>         0.023252 
     28 H           2.849975   -0.743070    1.223344 H         1 <1>         0.023252 
     29 H           2.269905    0.462212    2.416515 H         1 <1>         0.023252 
@<TRIPOS>BOND
     1    1    2 1    
     2    1    6 1    
     3    1   12 1    
     4    1   13 1    
     5    2    3 1    
     6    2    7 1    
     7    2   14 1    
     8    3    4 1    
     9    3   15 1    
    10    3   16 1    
    11    4    5 1    
    12    4   17 1    
    13    4   18 1    
    14    5    6 1    
    15    5    8 1    
    16    5   19 1    
    17    6   11 2    
    18    7   20 1    
    19    7   21 1    
    20    7   22 1    
    21    8    9 1    
    22    8   10 1    
    23    8   23 1    
    24    9   24 1    
    25    9   25 1    
    26    9   26 1    
    27   10   27 1    
    28   10   28 1    
    29   10   29 1    
@<TRIPOS>SUBSTRUCTURE
     1 ****        1 TEMP              0 ****  ****    0 ROOT 
@<TRIPOS>NORMAL
@<TRIPOS>FF_PBC
FORCE_FIELD_SETUP_FEATURE Force Field Setup information
v1.0  0 0.000000 0.000000 0.000000 0.000000 0.000000 0.000000 NONE 0 0 0 0 1 0 0 0 0 0 0 0 0
