@<TRIPOS>MOLECULE
MOL001922
   51    50     1     1     0
SMALL
GASTEIGER


@<TRIPOS>ATOM
      1 C           1.368351   -1.136359    2.313961 C.3       1 <1>        -0.017812 
      2 C          -0.180157   -0.986028    2.234929 C.3       1 <1>        -0.048132 
      3 C           2.112242    0.202151    1.986374 C.3       1 <1>        -0.048132 
      4 C           1.783637   -1.669905    3.715535 C.3       1 <1>         0.047021 
      5 C          -0.697682   -0.729626    0.790920 C.3       1 <1>        -0.052735 
      6 C           2.993456    0.085892    0.711896 C.3       1 <1>        -0.052736 
      7 O           1.152638   -2.939723    3.963248 O.3       1 <1>        -0.394734 
      8 C          -2.246282   -0.605680    0.784771 C.3       1 <1>        -0.053047 
      9 C           3.781576    1.397657    0.448252 C.3       1 <1>        -0.053056 
     10 C          -2.806099   -0.493803   -0.658260 C.3       1 <1>        -0.053057 
     11 C           4.665537    1.282712   -0.823108 C.3       1 <1>        -0.053306 
     12 C          -4.355576   -0.378922   -0.645526 C.3       1 <1>        -0.053065 
     13 C           5.490594    2.578298   -1.055505 C.3       1 <1>        -0.055911 
     14 C          -4.951542   -0.451394   -2.077595 C.3       1 <1>        -0.053306 
     15 C           6.340770    2.479126   -2.349663 C.3       1 <1>        -0.065276 
     16 C          -6.498727   -0.325078   -2.053631 C.3       1 <1>        -0.055911 
     17 C          -7.095675   -0.489986   -3.474236 C.3       1 <1>        -0.065276 
     18 H           1.660896   -1.924549    1.598128 H         1 <1>         0.032281 
     19 H          -0.501508   -0.171238    2.903176 H         1 <1>         0.026864 
     20 H          -0.648118   -1.917460    2.591607 H         1 <1>         0.026864 
     21 H           1.398626    1.029342    1.848641 H         1 <1>         0.026864 
     22 H           2.763156    0.497533    2.823136 H         1 <1>         0.026864 
     23 H           1.490764   -0.939200    4.489300 H         1 <1>         0.055972 
     24 H           2.879094   -1.799033    3.747188 H         1 <1>         0.055972 
     25 H          -0.395331   -1.572047    0.148366 H         1 <1>         0.026538 
     26 H          -0.269866    0.191837    0.368192 H         1 <1>         0.026538 
     27 H           3.710739   -0.741604    0.840252 H         1 <1>         0.026538 
     28 H           2.351484   -0.142981   -0.155945 H         1 <1>         0.026538 
     29 H           1.376330   -3.315370    4.809633 H         1 <1>         0.209407 
     30 H          -2.546558    0.278371    1.370779 H         1 <1>         0.026529 
     31 H          -2.681606   -1.498052    1.263056 H         1 <1>         0.026529 
     32 H           3.073214    2.232808    0.327332 H         1 <1>         0.026528 
     33 H           4.426700    1.613656    1.315523 H         1 <1>         0.026528 
     34 H          -2.510245   -1.391268   -1.224535 H         1 <1>         0.026528 
     35 H          -2.375607    0.387483   -1.160064 H         1 <1>         0.026528 
     36 H           5.356025    0.430287   -0.712906 H         1 <1>         0.026520 
     37 H           4.022086    1.094660   -1.697314 H         1 <1>         0.026520 
     38 H          -4.643024    0.573549   -0.170874 H         1 <1>         0.026528 
     39 H          -4.777679   -1.202065   -0.046131 H         1 <1>         0.026528 
     40 H           4.811893    3.442083   -1.139703 H         1 <1>         0.026265 
     41 H           6.161493    2.749303   -0.197952 H         1 <1>         0.026265 
     42 H          -4.675369   -1.415272   -2.534412 H         1 <1>         0.026520 
     43 H          -4.525977    0.356327   -2.694040 H         1 <1>         0.026520 
     44 H           6.933209    3.398364   -2.485018 H         1 <1>         0.022978 
     45 H           7.030424    1.622505   -2.293183 H         1 <1>         0.022978 
     46 H           5.687852    2.350717   -3.226584 H         1 <1>         0.022978 
     47 H          -6.780428    0.660074   -1.648826 H         1 <1>         0.026265 
     48 H          -6.924874   -1.100919   -1.395945 H         1 <1>         0.026265 
     49 H          -8.190656   -0.374202   -3.443004 H         1 <1>         0.022978 
     50 H          -6.862372   -1.490144   -3.873592 H         1 <1>         0.022978 
     51 H          -6.681724    0.267476   -4.156847 H         1 <1>         0.022978 
@<TRIPOS>BOND
     1    1    2 1    
     2    1    3 1    
     3    1    4 1    
     4    1   18 1    
     5    2    5 1    
     6    2   19 1    
     7    2   20 1    
     8    3    6 1    
     9    3   21 1    
    10    3   22 1    
    11    4    7 1    
    12    4   23 1    
    13    4   24 1    
    14    5    8 1    
    15    5   25 1    
    16    5   26 1    
    17    6    9 1    
    18    6   27 1    
    19    6   28 1    
    20    7   29 1    
    21    8   10 1    
    22    8   30 1    
    23    8   31 1    
    24    9   11 1    
    25    9   32 1    
    26    9   33 1    
    27   10   12 1    
    28   10   34 1    
    29   10   35 1    
    30   11   13 1    
    31   11   36 1    
    32   11   37 1    
    33   12   14 1    
    34   12   38 1    
    35   12   39 1    
    36   13   15 1    
    37   13   40 1    
    38   13   41 1    
    39   14   16 1    
    40   14   42 1    
    41   14   43 1    
    42   15   44 1    
    43   15   45 1    
    44   15   46 1    
    45   16   17 1    
    46   16   47 1    
    47   16   48 1    
    48   17   49 1    
    49   17   50 1    
    50   17   51 1    
@<TRIPOS>SUBSTRUCTURE
     1 ****        1 TEMP              0 ****  ****    0 ROOT 
@<TRIPOS>NORMAL
@<TRIPOS>FF_PBC
FORCE_FIELD_SETUP_FEATURE Force Field Setup information
v1.0  0 0.000000 0.000000 0.000000 0.000000 0.000000 0.000000 NONE 0 0 0 0 1 0 0 0 0 0 0 0 0
