@<TRIPOS>MOLECULE
MOL012976
   28    31     1     1     0
SMALL
GASTEIGER


@<TRIPOS>ATOM
      1 C           4.330993    1.193723    0.050248 C.ar      1 <1>         0.105030 
      2 O           3.516896    2.334012   -0.065347 O.3       1 <1>        -0.272709 
      3 C           2.185935    2.213066   -0.136244 C.2       1 <1>         0.308824 
      4 C           1.563885    0.843378   -0.090867 C.ar      1 <1>         0.167098 
      5 C           2.310790   -0.264592    0.017582 C.ar      1 <1>         0.379713 
      6 C           3.780181   -0.117632    0.094818 C.ar      1 <1>         0.110355 
      7 C           4.666232   -1.299531    0.216149 C.ar      1 <1>        -0.040626 
      8 C           6.050542   -1.122572    0.288099 C.ar      1 <1>        -0.030925 
      9 C           6.643047    0.235182    0.244192 C.ar      1 <1>         0.075087 
     10 C           5.801260    1.360590    0.128003 C.ar      1 <1>        -0.000400 
     11 O           1.579614   -1.454040    0.044820 O.2       1 <1>        -0.202788 
     12 C           0.262219   -0.987955   -0.058201 C.ar      1 <1>         0.367049 
     13 C           0.173173    0.389066   -0.143665 C.ar      1 <1>         0.101009 
     14 C          -1.110298    1.111796   -0.258755 C.ar      1 <1>        -0.042114 
     15 C          -2.273258    0.338168   -0.280136 C.ar      1 <1>        -0.030761 
     16 C          -2.214078   -1.145929   -0.190639 C.ar      1 <1>         0.081518 
     17 C          -0.972411   -1.803176   -0.081596 C.ar      1 <1>         0.072784 
     18 O           8.031149    0.369216    0.319513 O.3       1 <1>        -0.359749 
     19 O          -3.410668   -1.865185   -0.217420 O.3       1 <1>        -0.359526 
     20 O           1.474832    3.197039   -0.237022 O.2       1 <1>        -0.258461 
     21 H           4.243387   -2.298945    0.249095 H         1 <1>         0.062802 
     22 H           6.707080   -1.982164    0.377157 H         1 <1>         0.064344 
     23 H           6.216196    2.361896    0.094129 H         1 <1>         0.066949 
     24 H          -1.144211    2.195160   -0.323405 H         1 <1>         0.062744 
     25 H          -3.241887    0.821035   -0.363299 H         1 <1>         0.064346 
     26 H          -0.905370   -2.883226   -0.015353 H         1 <1>         0.073776 
     27 H           8.348873    1.264791    0.284045 H         1 <1>         0.217315 
     28 H          -3.324501   -2.809673   -0.143000 H         1 <1>         0.217318 
@<TRIPOS>BOND
     1    1    2 1    
     2    1    6 2    
     3    1   10 1    
     4    2    3 1    
     5    3    4 1    
     6    3   20 2    
     7    4    5 2    
     8    4   13 1    
     9    5    6 1    
    10    5   11 1    
    11    6    7 1    
    12    7    8 2    
    13    7   21 1    
    14    8    9 1    
    15    8   22 1    
    16    9   10 2    
    17    9   18 1    
    18   10   23 1    
    19   11   12 1    
    20   12   13 2    
    21   12   17 1    
    22   13   14 1    
    23   14   15 2    
    24   14   24 1    
    25   15   16 1    
    26   15   25 1    
    27   16   17 2    
    28   16   19 1    
    29   17   26 1    
    30   18   27 1    
    31   19   28 1    
@<TRIPOS>SUBSTRUCTURE
     1 ****        1 TEMP              0 ****  ****    0 ROOT 
@<TRIPOS>NORMAL
@<TRIPOS>FF_PBC
FORCE_FIELD_SETUP_FEATURE Force Field Setup information
v1.0  0 0.000000 0.000000 0.000000 0.000000 0.000000 0.000000 NONE 0 0 0 0 1 0 0 0 0 0 0 0 0
