@<TRIPOS>MOLECULE
MOL013278
   43    45     1     1     0
SMALL
GASTEIGER


@<TRIPOS>ATOM
      1 C          -1.138419    0.946144    0.003962 C.ar      1 <1>         0.128739 
      2 C          -0.674370    2.350600    0.037808 C.ar      1 <1>         0.084741 
      3 C          -2.565432    0.689422   -0.019650 C.ar      1 <1>         0.137043 
      4 O          -0.188059   -0.097414   -0.004386 O.3       1 <1>        -0.305125 
      5 C          -1.568742    3.437129    0.047623 C.ar      1 <1>         0.091720 
      6 C           0.817863    2.546695    0.061178 C.2       1 <1>         0.193602 
      7 C          -3.509793    1.846607   -0.009020 C.ar      1 <1>         0.110704 
      8 O          -3.097661   -0.608066   -0.052237 O.3       1 <1>        -0.342923 
      9 C           1.151749    0.102258    0.017030 C.2       1 <1>         0.093974 
     10 C          -3.022836    3.155805    0.023161 C.ar      1 <1>         0.001740 
     11 O          -1.068231    4.744506    0.079945 O.3       1 <1>        -0.347034 
     12 C           1.655396    1.346440    0.048333 C.2       1 <1>         0.016921 
     13 O           1.335314    3.651553    0.089831 O.2       1 <1>        -0.287016 
     14 O          -4.905380    1.687692   -0.030236 O.3       1 <1>        -0.345170 
     15 C          -2.311682   -1.800379   -0.065181 C.3       1 <1>         0.043243 
     16 C           2.057795   -1.122583    0.004481 C.ar      1 <1>         0.005752 
     17 C          -1.937722    5.887790    0.091176 C.3       1 <1>         0.043055 
     18 C          -5.560952    0.410427   -0.063658 C.3       1 <1>         0.043138 
     19 C           1.438605   -2.472409   -0.029619 C.ar      1 <1>        -0.049674 
     20 C           3.490118   -1.081273    0.023199 C.ar      1 <1>        -0.049674 
     21 C           2.206958   -3.642886   -0.042884 C.ar      1 <1>        -0.031056 
     22 C           4.305095   -2.321169    0.009244 C.ar      1 <1>        -0.031056 
     23 C           3.683808   -3.584319   -0.023218 C.ar      1 <1>         0.075851 
     24 O           4.406888   -4.784884   -0.037582 O.3       1 <1>        -0.347912 
     25 C           5.843385   -4.809058   -0.019572 C.3       1 <1>         0.043026 
     26 H          -3.747005    3.960282    0.029644 H         1 <1>         0.067023 
     27 H           2.712679    1.586223    0.066972 H         1 <1>         0.068219 
     28 H          -2.998988   -2.658507   -0.090973 H         1 <1>         0.052872 
     29 H          -1.710350   -1.865088    0.853629 H         1 <1>         0.052872 
     30 H          -1.686374   -1.829506   -0.969691 H         1 <1>         0.052872 
     31 H          -1.305339    6.787379    0.117134 H         1 <1>         0.052870 
     32 H          -2.578573    5.889081    0.986161 H         1 <1>         0.052870 
     33 H          -2.555099    5.924683   -0.819414 H         1 <1>         0.052870 
     34 H          -6.644794    0.596315   -0.073921 H         1 <1>         0.052871 
     35 H          -5.301061   -0.146977   -0.976494 H         1 <1>         0.052871 
     36 H          -5.324262   -0.182415    0.833020 H         1 <1>         0.052871 
     37 H           0.366197   -2.573919   -0.045000 H         1 <1>         0.062503 
     38 H           4.040268   -0.152013    0.048156 H         1 <1>         0.062503 
     39 H           1.721662   -4.612944   -0.067935 H         1 <1>         0.064346 
     40 H           5.383669   -2.224568    0.024685 H         1 <1>         0.064346 
     41 H           6.160575   -5.862146   -0.036117 H         1 <1>         0.052869 
     42 H           6.235153   -4.343742    0.897901 H         1 <1>         0.052869 
     43 H           6.258413   -4.308384   -0.907736 H         1 <1>         0.052869 
@<TRIPOS>BOND
     1    1    2 1    
     2    1    3 2    
     3    1    4 1    
     4    2    5 2    
     5    2    6 1    
     6    3    7 1    
     7    3    8 1    
     8    4    9 1    
     9    5   10 1    
    10    5   11 1    
    11    6   12 1    
    12    6   13 2    
    13    7   10 2    
    14    7   14 1    
    15    8   15 1    
    16    9   12 2    
    17    9   16 1    
    18   10   26 1    
    19   11   17 1    
    20   12   27 1    
    21   14   18 1    
    22   15   28 1    
    23   15   29 1    
    24   15   30 1    
    25   16   19 1    
    26   16   20 2    
    27   17   31 1    
    28   17   32 1    
    29   17   33 1    
    30   18   34 1    
    31   18   35 1    
    32   18   36 1    
    33   19   21 2    
    34   19   37 1    
    35   20   22 1    
    36   20   38 1    
    37   21   23 1    
    38   21   39 1    
    39   22   23 2    
    40   22   40 1    
    41   23   24 1    
    42   24   25 1    
    43   25   41 1    
    44   25   42 1    
    45   25   43 1    
@<TRIPOS>SUBSTRUCTURE
     1 ****        1 TEMP              0 ****  ****    0 ROOT 
@<TRIPOS>NORMAL
@<TRIPOS>FF_PBC
FORCE_FIELD_SETUP_FEATURE Force Field Setup information
v1.0  0 0.000000 0.000000 0.000000 0.000000 0.000000 0.000000 NONE 0 0 0 0 1 0 0 0 0 0 0 0 0
