@<TRIPOS>MOLECULE
MOL002111
   26    27     1     1     0
SMALL
GASTEIGER


@<TRIPOS>ATOM
      1 C           2.339056    0.913204    3.150340 C.ar      1 <1>        -0.060982 
      2 C           0.961032    1.297430    2.749715 C.ar      1 <1>        -0.061082 
      3 C           0.393946    0.787143    1.543128 C.ar      1 <1>        -0.051369 
      4 C           1.220103   -0.127616    0.716030 C.ar      1 <1>         0.018136 
      5 C           2.438417   -0.455909    1.091330 C.ar      1 <1>         0.056443 
      6 C           3.085472    0.036440    2.327182 C.ar      1 <1>        -0.048209 
      7 O           2.072147   -1.596026   -0.947660 O.3       1 <1>        -0.273634 
      8 C           2.961266   -1.384180    0.028734 C.2       1 <1>         0.299430 
      9 C          -0.085328   -0.851032   -1.373794 C.2       1 <1>        -0.052747 
     10 C          -1.356428   -0.081421   -1.116212 C.3       1 <1>        -0.032268 
     11 C          -2.403981   -0.291015   -2.243176 C.3       1 <1>        -0.052380 
     12 C          -3.701067    0.512678   -1.964615 C.3       1 <1>        -0.064997 
     13 C           1.001797   -0.862472   -0.590592 C.2       1 <1>         0.090427 
     14 O           4.070878   -1.889993    0.050237 O.2       1 <1>        -0.258805 
     15 H           2.768998    1.302535    4.067629 H         1 <1>         0.061779 
     16 H           0.385011    1.968792    3.378680 H         1 <1>         0.061777 
     17 H          -0.610231    1.075248    1.265276 H         1 <1>         0.062444 
     18 H           4.094219   -0.266815    2.586683 H         1 <1>         0.062547 
     19 H          -0.028191   -1.459636   -2.277387 H         1 <1>         0.059789 
     20 H          -1.792677   -0.421723   -0.164031 H         1 <1>         0.030812 
     21 H          -1.116684    0.991775   -1.057277 H         1 <1>         0.030812 
     22 H          -1.977885    0.034922   -3.207123 H         1 <1>         0.026559 
     23 H          -2.652844   -1.363019   -2.319603 H         1 <1>         0.026559 
     24 H          -4.429719    0.348878   -2.774254 H         1 <1>         0.022987 
     25 H          -4.155963    0.191933   -1.014496 H         1 <1>         0.022987 
     26 H          -3.480946    1.589979   -1.905044 H         1 <1>         0.022987 
@<TRIPOS>BOND
     1    2    1 1    
     2    6    1 2    
     3    1   15 1    
     4    3    2 2    
     5    2   16 1    
     6    4    3 1    
     7    3   17 1    
     8    4    5 2    
     9   13    4 1    
    10    5    6 1    
    11    8    5 1    
    12    6   18 1    
    13    7    8 1    
    14   13    7 1    
    15    8   14 2    
    16    9   10 1    
    17    9   13 2    
    18    9   19 1    
    19   10   11 1    
    20   10   20 1    
    21   10   21 1    
    22   11   12 1    
    23   11   22 1    
    24   11   23 1    
    25   12   24 1    
    26   12   25 1    
    27   12   26 1    
@<TRIPOS>SUBSTRUCTURE
     1 ****        9 TEMP              0 ****  ****    0 ROOT 
@<TRIPOS>NORMAL
@<TRIPOS>FF_PBC
FORCE_FIELD_SETUP_FEATURE Force Field Setup information
v1.0  0 0.000000 0.000000 0.000000 0.000000 0.000000 0.000000 NONE 0 0 0 0 1 0 0 0 0 0 0 0 0
