@<TRIPOS>MOLECULE
MOL002504
   42    41     1     1     0
SMALL
GASTEIGER


@<TRIPOS>ATOM
      1 C           2.956319   -2.120987    0.813534 C.3       1 <1>         0.081390 
      2 C           4.120820   -2.993860    1.349539 C.3       1 <1>        -0.032444 
      3 C           3.361518   -0.676350    1.038478 C.2       1 <1>        -0.060223 
      4 C           2.825018    0.133329    1.959585 C.2       1 <1>        -0.099966 
      5 C           2.721118   -2.425241   -0.700941 C.3       1 <1>        -0.017216 
      6 C           1.492668   -1.704441   -1.332198 C.3       1 <1>        -0.031629 
      7 C           1.593404   -0.203668   -1.166062 C.2       1 <1>        -0.084914 
      8 C           0.673517    0.637358   -0.659021 C.2       1 <1>        -0.076240 
      9 C           1.017761    2.104377   -0.487857 C.3       1 <1>        -0.043778 
     10 C          -0.721543    0.221613   -0.213706 C.3       1 <1>        -0.028563 
     11 C          -1.825299    1.305366   -0.395106 C.3       1 <1>        -0.030848 
     12 C          -3.202333    0.823546    0.004892 C.2       1 <1>        -0.084989 
     13 C          -4.334306    1.532539   -0.145736 C.2       1 <1>        -0.079608 
     14 C          -5.674071    0.972472    0.281438 C.3       1 <1>        -0.044049 
     15 C          -4.388961    2.925945   -0.737871 C.3       1 <1>        -0.044049 
     16 O           1.810448   -2.499157    1.596838 O.3       1 <1>        -0.384818 
     17 H           3.871987   -4.062466    1.252043 H         1 <1>         0.026037 
     18 H           4.288480   -2.775979    2.416219 H         1 <1>         0.026037 
     19 H           5.054200   -2.796559    0.799085 H         1 <1>         0.026037 
     20 H           4.156320   -0.271630    0.409262 H         1 <1>         0.059440 
     21 H           3.172424    1.161818    2.057552 H         1 <1>         0.053262 
     22 H           2.039244   -0.187060    2.640676 H         1 <1>         0.053262 
     23 H           2.571340   -3.511263   -0.821302 H         1 <1>         0.029887 
     24 H           3.627524   -2.153152   -1.266921 H         1 <1>         0.029887 
     25 H           1.469042   -1.919715   -2.412526 H         1 <1>         0.030839 
     26 H           0.583705   -2.141975   -0.900200 H         1 <1>         0.030839 
     27 H           2.545696    0.207253   -1.501822 H         1 <1>         0.057155 
     28 H           0.422342    2.718532   -1.179266 H         1 <1>         0.027436 
     29 H           0.804897    2.408579    0.547979 H         1 <1>         0.027436 
     30 H           2.079228    2.326035   -0.675993 H         1 <1>         0.027436 
     31 H          -1.074969   -0.646111   -0.788782 H         1 <1>         0.031285 
     32 H          -0.667635   -0.056087    0.850443 H         1 <1>         0.031285 
     33 H          -1.602737    2.186139    0.226827 H         1 <1>         0.031044 
     34 H          -1.842561    1.600419   -1.456414 H         1 <1>         0.031044 
     35 H          -3.264487   -0.171096    0.449245 H         1 <1>         0.057155 
     36 H          -5.603246   -0.030190    0.728116 H         1 <1>         0.027427 
     37 H          -6.133927    1.642517    1.023056 H         1 <1>         0.027427 
     38 H          -6.338768    0.909015   -0.593920 H         1 <1>         0.027427 
     39 H          -3.413345    3.338798   -1.026748 H         1 <1>         0.027427 
     40 H          -5.028901    2.912099   -1.634022 H         1 <1>         0.027427 
     41 H          -4.835100    3.612420   -0.002271 H         1 <1>         0.027427 
     42 H           1.031137   -1.997113    1.393441 H         1 <1>         0.210579 
@<TRIPOS>BOND
     1    1    2 1    
     2    1    3 1    
     3    1    5 1    
     4    1   16 1    
     5    2   17 1    
     6    2   18 1    
     7    2   19 1    
     8    3    4 2    
     9    3   20 1    
    10    4   21 1    
    11    4   22 1    
    12    5    6 1    
    13    5   23 1    
    14    5   24 1    
    15    6    7 1    
    16    6   25 1    
    17    6   26 1    
    18    7    8 2    
    19    7   27 1    
    20    8    9 1    
    21    8   10 1    
    22    9   28 1    
    23    9   29 1    
    24    9   30 1    
    25   10   11 1    
    26   10   31 1    
    27   10   32 1    
    28   11   12 1    
    29   11   33 1    
    30   11   34 1    
    31   12   13 2    
    32   12   35 1    
    33   13   14 1    
    34   13   15 1    
    35   14   36 1    
    36   14   37 1    
    37   14   38 1    
    38   15   39 1    
    39   15   40 1    
    40   15   41 1    
    41   16   42 1    
@<TRIPOS>SUBSTRUCTURE
     1 ****        1 TEMP              0 ****  ****    0 ROOT 
@<TRIPOS>NORMAL
@<TRIPOS>FF_PBC
FORCE_FIELD_SETUP_FEATURE Force Field Setup information
v1.0  0 0.000000 0.000000 0.000000 0.000000 0.000000 0.000000 NONE 0 0 0 0 1 0 0 0 0 0 0 0 0
