@<TRIPOS>MOLECULE
MOL005448
   22    21     1     1     0
SMALL
GASTEIGER


@<TRIPOS>ATOM
      1 O           1.929378   -1.427445    1.241991 O.3       1 <1>        -0.330097 
      2 O           2.011915   -1.151430   -0.979443 O.2       1 <1>        -0.263438 
      3 N           2.190193    1.657114    0.092075 N.3       1 <1>        -0.319311 
      4 C          -1.354629    0.043743   -0.431121 C.3       1 <1>        -0.044840 
      5 C          -0.072841    0.907366   -0.658836 C.3       1 <1>        -0.026136 
      6 C           1.120623    0.653328    0.309451 C.3       1 <1>         0.091623 
      7 C          -1.986534    0.261413    0.972141 C.3       1 <1>        -0.062604 
      8 C          -1.141434   -1.472501   -0.696741 C.3       1 <1>        -0.062604 
      9 C           1.726732   -0.719231    0.127082 C.2       1 <1>         0.276548 
     10 H          -2.093008    0.394228   -1.176619 H         1 <1>         0.029609 
     11 H           0.277996    0.762691   -1.693629 H         1 <1>         0.028762 
     12 H          -0.365881    1.965496   -0.559324 H         1 <1>         0.028762 
     13 H           0.787667    0.759138    1.354084 H         1 <1>         0.056220 
     14 H          -1.359194   -0.171670    1.764884 H         1 <1>         0.023234 
     15 H          -2.121976    1.335212    1.174262 H         1 <1>         0.023234 
     16 H          -2.973453   -0.225280    1.020375 H         1 <1>         0.023234 
     17 H          -0.640136   -1.630500   -1.664132 H         1 <1>         0.023234 
     18 H          -0.542140   -1.939689    0.097164 H         1 <1>         0.023234 
     19 H          -2.113903   -1.988996   -0.725790 H         1 <1>         0.023234 
     20 H           1.838655    2.659869    0.297735 H         1 <1>         0.118922 
     21 H           2.569092    1.604222   -0.920330 H         1 <1>         0.118922 
     22 H           2.313675   -2.276875    1.054624 H         1 <1>         0.220259 
@<TRIPOS>BOND
     1    9    1 1    
     2    1   22 1    
     3    9    2 2    
     4    6    3 1    
     5    3   20 1    
     6    3   21 1    
     7    5    4 1    
     8    4    7 1    
     9    4    8 1    
    10    4   10 1    
    11    6    5 1    
    12    5   11 1    
    13    5   12 1    
    14    6    9 1    
    15    6   13 1    
    16    7   14 1    
    17    7   15 1    
    18    7   16 1    
    19    8   17 1    
    20    8   18 1    
    21    8   19 1    
@<TRIPOS>SUBSTRUCTURE
     1 ****        4 TEMP              0 ****  ****    0 ROOT 
@<TRIPOS>NORMAL
@<TRIPOS>FF_PBC
FORCE_FIELD_SETUP_FEATURE Force Field Setup information
v1.0  0 0.000000 0.000000 0.000000 0.000000 0.000000 0.000000 NONE 0 0 0 0 1 0 0 0 0 0 0 0 0
