@<TRIPOS>MOLECULE
MOL013444
   94    99     1     1     0
SMALL
GASTEIGER


@<TRIPOS>ATOM
      1 C          -3.190953   -0.868219   -1.808922 C.3       1 <1>         0.097162 
      2 C          -3.438847   -2.103883   -0.905584 C.3       1 <1>         0.041564 
      3 C          -2.223023   -2.996426   -0.962803 C.2       1 <1>         0.170906 
      4 C          -0.860505   -2.376399   -1.171180 C.ar      1 <1>         0.077223 
      5 C          -0.822839   -0.919394   -1.435806 C.ar      1 <1>         0.092370 
      6 O          -2.000413   -0.170777   -1.414274 O.3       1 <1>        -0.335586 
      7 C           0.344117   -0.308874   -1.692375 C.ar      1 <1>        -0.000657 
      8 C           1.617594   -1.067953   -1.699643 C.ar      1 <1>         0.084385 
      9 C           1.596365   -2.405332   -1.389769 C.ar      1 <1>        -0.000944 
     10 C           0.305856   -3.094975   -1.132411 C.ar      1 <1>         0.087976 
     11 O          -2.334224   -4.207079   -0.845045 O.2       1 <1>        -0.291783 
     12 O           0.320840   -4.467450   -0.867429 O.3       1 <1>        -0.358966 
     13 C          -4.300215    0.195756   -1.763558 C.ar      1 <1>        -0.017820 
     14 C          -4.904721    0.671955   -3.032422 C.ar      1 <1>        -0.053652 
     15 C          -5.842553    1.714852   -3.031925 C.ar      1 <1>        -0.031231 
     16 C          -6.271399    2.349379   -1.765089 C.ar      1 <1>         0.079482 
     17 C          -5.750900    1.852928   -0.540231 C.ar      1 <1>        -0.031231 
     18 C          -4.741398    0.764338   -0.546486 C.ar      1 <1>        -0.053652 
     19 O          -7.177906    3.419645   -1.830536 O.3       1 <1>        -0.312551 
     20 C          -7.770203    3.981171   -0.649199 C.3       1 <1>         0.193642 
     21 C          -8.744635    5.118650   -1.051708 C.3       1 <1>         0.134509 
     22 O          -7.994394    6.223425   -1.595381 O.3       1 <1>        -0.384091 
     23 C          -9.540682    5.589865    0.193910 C.3       1 <1>         0.114074 
     24 O         -10.500027    6.588638   -0.208110 O.3       1 <1>        -0.386401 
     25 C         -10.245936    4.382446    0.860097 C.3       1 <1>         0.111896 
     26 O         -10.868209    4.852179    2.071924 O.3       1 <1>        -0.386488 
     27 C          -9.191381    3.281828    1.162164 C.3       1 <1>         0.113017 
     28 O          -8.485763    2.897708   -0.031668 O.3       1 <1>        -0.340168 
     29 C          -9.873810    2.002845    1.707209 C.3       1 <1>         0.073015 
     30 O         -10.674376    2.343759    2.856726 O.3       1 <1>        -0.392366 
     31 O           2.790322   -0.381177   -2.037846 O.3       1 <1>        -0.312385 
     32 C           4.043371   -0.999340   -2.387347 C.3       1 <1>         0.193645 
     33 C           4.700852   -0.072418   -3.436327 C.3       1 <1>         0.134509 
     34 O           3.893624   -0.065295   -4.628698 O.3       1 <1>        -0.384091 
     35 C           6.119420   -0.593207   -3.768784 C.3       1 <1>         0.114074 
     36 O           6.748311    0.311895   -4.695938 O.3       1 <1>        -0.386401 
     37 C           6.952720   -0.698253   -2.471559 C.3       1 <1>         0.111906 
     38 O           8.226032   -1.268340   -2.844799 O.3       1 <1>        -0.386488 
     39 C           6.184636   -1.548959   -1.413381 C.3       1 <1>         0.113377 
     40 O           4.845873   -1.048014   -1.192989 O.3       1 <1>        -0.340158 
     41 C           6.926620   -1.508858   -0.048422 C.3       1 <1>         0.079556 
     42 O           6.151061   -2.147712    0.986849 O.3       1 <1>        -0.346051 
     43 C           6.770919   -2.038998    2.286155 C.3       1 <1>         0.187899 
     44 C           5.885563   -2.723876    3.353301 C.3       1 <1>         0.134110 
     45 O           4.593624   -2.081867    3.413022 O.3       1 <1>        -0.384104 
     46 C           6.613123   -2.643425    4.723535 C.3       1 <1>         0.113972 
     47 O           6.713124   -1.266385    5.142175 O.3       1 <1>        -0.386402 
     48 C           8.007026   -3.313702    4.596916 C.3       1 <1>         0.109478 
     49 O           7.773262   -4.721513    4.390992 O.3       1 <1>        -0.386579 
     50 C           8.814378   -2.705132    3.411234 C.3       1 <1>         0.087307 
     51 O           8.045148   -2.709092    2.190649 O.3       1 <1>        -0.343081 
     52 C           9.453155   -1.318082    3.704181 C.3       1 <1>        -0.036060 
     53 H          -3.058088   -1.218515   -2.845998 H         1 <1>         0.065571 
     54 H          -4.329709   -2.649613   -1.253871 H         1 <1>         0.037400 
     55 H          -3.590328   -1.825915    0.144645 H         1 <1>         0.037400 
     56 H           0.357915    0.756436   -1.896514 H         1 <1>         0.066941 
     57 H           2.508085   -2.988465   -1.336247 H         1 <1>         0.066933 
     58 H          -0.541305   -4.852719   -0.737928 H         1 <1>         0.217342 
     59 H          -4.622393    0.217104   -3.976278 H         1 <1>         0.062190 
     60 H          -6.266284    2.067436   -3.965906 H         1 <1>         0.064339 
     61 H          -6.058284    2.260522    0.416105 H         1 <1>         0.064339 
     62 H          -4.331614    0.426863    0.398047 H         1 <1>         0.062190 
     63 H          -6.984829    4.410699   -0.006152 H         1 <1>         0.094159 
     64 H          -9.446202    4.718319   -1.805524 H         1 <1>         0.067108 
     65 H          -8.559465    6.950133   -1.841202 H         1 <1>         0.210111 
     66 H          -8.827672    6.040240    0.910733 H         1 <1>         0.064758 
     67 H         -11.013947    6.896628    0.534504 H         1 <1>         0.210005 
     68 H         -11.010489    3.993943    0.164632 H         1 <1>         0.064673 
     69 H         -11.264893    4.137012    2.565890 H         1 <1>         0.210004 
     70 H          -8.492564    3.657779    1.932381 H         1 <1>         0.064668 
     71 H          -9.086581    1.272889    1.965502 H         1 <1>         0.058370 
     72 H         -10.504208    1.569180    0.909471 H         1 <1>         0.058370 
     73 H         -11.091655    1.584115    3.254311 H         1 <1>         0.209508 
     74 H           3.909096   -1.980702   -2.871851 H         1 <1>         0.094160 
     75 H           4.771591    0.940533   -3.005592 H         1 <1>         0.067108 
     76 H           4.280534    0.478196   -5.307285 H         1 <1>         0.210111 
     77 H           6.025323   -1.589987   -4.230785 H         1 <1>         0.064758 
     78 H           7.632357    0.032611   -4.918964 H         1 <1>         0.210005 
     79 H           7.093827    0.334420   -2.105201 H         1 <1>         0.064673 
     80 H           8.877337   -1.265070   -2.150306 H         1 <1>         0.210004 
     81 H           6.124582   -2.595430   -1.756547 H         1 <1>         0.064677 
     82 H           7.095036   -0.451024    0.215901 H         1 <1>         0.058744 
     83 H           7.900178   -2.015809   -0.140518 H         1 <1>         0.058744 
     84 H           6.862105   -0.973921    2.552455 H         1 <1>         0.093739 
     85 H           5.762305   -3.776172    3.042180 H         1 <1>         0.067095 
     86 H           3.996960   -2.492262    4.029294 H         1 <1>         0.210110 
     87 H           6.016731   -3.202354    5.468430 H         1 <1>         0.064757 
     88 H           7.110525   -1.156415    5.999972 H         1 <1>         0.210005 
     89 H           8.566400   -3.177552    5.537514 H         1 <1>         0.064584 
     90 H           8.570930   -5.233772    4.301000 H         1 <1>         0.210002 
     91 H           9.664427   -3.378067    3.205351 H         1 <1>         0.062075 
     92 H          10.030299   -1.000287    2.821350 H         1 <1>         0.025536 
     93 H          10.140651   -1.395050    4.561217 H         1 <1>         0.025536 
     94 H           8.718055   -0.534655    3.925225 H         1 <1>         0.025536 
@<TRIPOS>BOND
     1    1    2 1    
     2    1    6 1    
     3    1   13 1    
     4    1   53 1    
     5    2    3 1    
     6    2   54 1    
     7    2   55 1    
     8    3    4 1    
     9    3   11 2    
    10    4    5 1    
    11    4   10 2    
    12    5    6 1    
    13    5    7 2    
    14    7    8 1    
    15    7   56 1    
    16    8    9 2    
    17    8   31 1    
    18    9   10 1    
    19    9   57 1    
    20   10   12 1    
    21   12   58 1    
    22   13   14 1    
    23   13   18 2    
    24   14   15 2    
    25   14   59 1    
    26   15   16 1    
    27   15   60 1    
    28   16   17 2    
    29   16   19 1    
    30   17   18 1    
    31   17   61 1    
    32   18   62 1    
    33   19   20 1    
    34   20   21 1    
    35   20   28 1    
    36   20   63 1    
    37   21   22 1    
    38   21   23 1    
    39   21   64 1    
    40   22   65 1    
    41   23   24 1    
    42   23   25 1    
    43   23   66 1    
    44   24   67 1    
    45   25   26 1    
    46   25   27 1    
    47   25   68 1    
    48   26   69 1    
    49   27   28 1    
    50   27   29 1    
    51   27   70 1    
    52   29   30 1    
    53   29   71 1    
    54   29   72 1    
    55   30   73 1    
    56   31   32 1    
    57   32   33 1    
    58   32   40 1    
    59   32   74 1    
    60   33   34 1    
    61   33   35 1    
    62   33   75 1    
    63   34   76 1    
    64   35   36 1    
    65   35   37 1    
    66   35   77 1    
    67   36   78 1    
    68   37   38 1    
    69   37   39 1    
    70   37   79 1    
    71   38   80 1    
    72   39   40 1    
    73   39   41 1    
    74   39   81 1    
    75   41   42 1    
    76   41   82 1    
    77   41   83 1    
    78   42   43 1    
    79   43   44 1    
    80   43   51 1    
    81   43   84 1    
    82   44   45 1    
    83   44   46 1    
    84   44   85 1    
    85   45   86 1    
    86   46   47 1    
    87   46   48 1    
    88   46   87 1    
    89   47   88 1    
    90   48   49 1    
    91   48   50 1    
    92   48   89 1    
    93   49   90 1    
    94   50   51 1    
    95   50   52 1    
    96   50   91 1    
    97   52   92 1    
    98   52   93 1    
    99   52   94 1    
@<TRIPOS>SUBSTRUCTURE
     1 ****        1 TEMP              0 ****  ****    0 ROOT 
@<TRIPOS>NORMAL
@<TRIPOS>FF_PBC
FORCE_FIELD_SETUP_FEATURE Force Field Setup information
v1.0  0 0.000000 0.000000 0.000000 0.000000 0.000000 0.000000 NONE 0 0 0 0 1 0 0 0 0 0 0 0 0
