@<TRIPOS>MOLECULE
MOL002042
   25    25     1     1     0
SMALL
GASTEIGER


@<TRIPOS>ATOM
      1 C          -0.043895    1.317055   -0.351047 C.ar      1 <1>         0.076237 
      2 C           0.522405   -0.010880    0.003696 C.ar      1 <1>        -0.015080 
      3 C          -0.358812   -1.079906    0.287170 C.ar      1 <1>        -0.055636 
      4 C          -1.826997   -0.888523    0.233886 C.ar      1 <1>        -0.058415 
      5 C          -2.366099    0.364832   -0.100918 C.ar      1 <1>        -0.048001 
      6 C          -1.449892    1.491243   -0.399649 C.ar      1 <1>        -0.028747 
      7 C           2.047914   -0.216687    0.060941 C.3       1 <1>        -0.019085 
      8 C           2.500916   -1.268207   -0.986820 C.3       1 <1>        -0.058569 
      9 C           2.496986   -0.607075    1.494343 C.3       1 <1>        -0.058569 
     10 C          -3.879448    0.595827   -0.164805 C.3       1 <1>        -0.039629 
     11 O           0.819364    2.381089   -0.633245 O.3       1 <1>        -0.359544 
     12 H           0.026724   -2.058419    0.548507 H         1 <1>         0.062125 
     13 H          -2.479614   -1.726293    0.456100 H         1 <1>         0.062030 
     14 H          -1.873324    2.455728   -0.657315 H         1 <1>         0.064593 
     15 H           2.551447    0.731891   -0.191019 H         1 <1>         0.034425 
     16 H           2.160951   -0.965887   -1.989783 H         1 <1>         0.023546 
     17 H           3.599375   -1.346372   -0.999069 H         1 <1>         0.023546 
     18 H           2.087356   -2.262051   -0.761571 H         1 <1>         0.023546 
     19 H           2.154277    0.153948    2.212884 H         1 <1>         0.023546 
     20 H           3.595343   -0.667897    1.547117 H         1 <1>         0.023546 
     21 H           2.083326   -1.581563    1.792258 H         1 <1>         0.023546 
     22 H          -4.446983   -0.315201    0.077334 H         1 <1>         0.027754 
     23 H          -4.151164    0.922267   -1.179748 H         1 <1>         0.027754 
     24 H          -4.153777    1.384153    0.551986 H         1 <1>         0.027754 
     25 H           0.383720    3.196928   -0.851433 H         1 <1>         0.217325 
@<TRIPOS>BOND
     1    1    2 1    
     2    1    6 2    
     3    1   11 1    
     4    2    3 2    
     5    2    7 1    
     6    3    4 1    
     7    3   12 1    
     8    4    5 2    
     9    4   13 1    
    10    5    6 1    
    11    5   10 1    
    12    6   14 1    
    13    7    8 1    
    14    7    9 1    
    15    7   15 1    
    16    8   16 1    
    17    8   17 1    
    18    8   18 1    
    19    9   19 1    
    20    9   20 1    
    21    9   21 1    
    22   10   22 1    
    23   10   23 1    
    24   10   24 1    
    25   11   25 1    
@<TRIPOS>SUBSTRUCTURE
     1 ****        1 TEMP              0 ****  ****    0 ROOT 
@<TRIPOS>NORMAL
@<TRIPOS>FF_PBC
FORCE_FIELD_SETUP_FEATURE Force Field Setup information
v1.0  0 0.000000 0.000000 0.000000 0.000000 0.000000 0.000000 NONE 0 0 0 0 1 0 0 0 0 0 0 0 0
