@<TRIPOS>MOLECULE
MOL004659
  144   152     1     1     0
SMALL
GASTEIGER


@<TRIPOS>ATOM
      1 O          -7.135883    3.521332    0.879157 O.3       1 <1>        -0.343069 
      2 C          -5.903363    4.263449    0.829258 C.3       1 <1>         0.188322 
      3 C          -6.189459    5.695758    0.315708 C.3       1 <1>         0.134121 
      4 C          -6.829718    5.611814   -1.090470 C.3       1 <1>         0.113972 
      5 C          -8.103791    4.730323   -1.038685 C.3       1 <1>         0.109478 
      6 C          -7.754095    3.350208   -0.413908 C.3       1 <1>         0.087307 
      7 O          -4.992820    3.605758   -0.071673 O.3       1 <1>        -0.340141 
      8 C          -4.289995    2.470263    0.481166 C.3       1 <1>         0.118420 
      9 C          -5.176012    1.390362    1.162680 C.3       1 <1>         0.114426 
     10 C          -4.347030    0.110828    1.449733 C.3       1 <1>         0.134131 
     11 C          -3.638259   -0.382351    0.166475 C.3       1 <1>         0.188231 
     12 O          -2.807456    0.676606   -0.324985 O.3       1 <1>        -0.340503 
     13 C          -3.540770    1.846579   -0.723268 C.3       1 <1>         0.113729 
     14 O          -4.967081    6.459857    0.278518 O.3       1 <1>        -0.384104 
     15 O          -7.158588    6.946326   -1.523329 O.3       1 <1>        -0.386402 
     16 O          -8.594596    4.622665   -2.390353 O.3       1 <1>        -0.386579 
     17 C          -9.007592    2.469396   -0.177859 C.3       1 <1>        -0.036060 
     18 O          -5.675379    1.889466    2.419315 O.3       1 <1>        -0.386391 
     19 O          -5.226211   -0.906324    1.970524 O.3       1 <1>        -0.384104 
     20 O          -2.823674   -1.510249    0.547101 O.3       1 <1>        -0.344805 
     21 C          -2.150669   -2.212848   -0.526847 C.3       1 <1>         0.069511 
     22 C          -1.556053   -3.561732    0.015773 C.3       1 <1>         0.020641 
     23 C          -0.039571   -3.419388    0.484407 C.3       1 <1>        -0.025206 
     24 C           0.451248   -1.969978    0.899983 C.3       1 <1>        -0.021744 
     25 C           2.036109   -1.886869    0.850110 C.3       1 <1>        -0.011151 
     26 C           2.869058   -3.142443    1.273668 C.3       1 <1>        -0.016907 
     27 C           4.420524   -2.811462    1.072036 C.3       1 <1>         0.009124 
     28 C           4.829690   -1.698276    2.108252 C.3       1 <1>         0.096991 
     29 O           4.824192   -2.179366    3.468272 O.3       1 <1>        -0.367842 
     30 C           6.074932   -2.808919    3.799704 C.3       1 <1>         0.057154 
     31 C           6.983001   -2.549760    2.572631 C.3       1 <1>         0.025848 
     32 C           6.328815   -1.277902    1.982198 C.3       1 <1>         0.002843 
     33 C           6.702819   -0.000309    2.796838 C.3       1 <1>        -0.041426 
     34 C           8.236972    0.199082    2.986497 C.3       1 <1>        -0.034485 
     35 C           8.818799   -1.062175    3.687814 C.3       1 <1>        -0.047195 
     36 C           8.492558   -2.372103    2.921080 C.3       1 <1>        -0.042066 
     37 C          -1.026156   -1.391184   -1.193622 C.3       1 <1>        -0.025376 
     38 C          -0.085070   -0.854605   -0.088090 C.3       1 <1>        -0.044437 
     39 C           1.057562   -4.105157   -0.397182 C.3       1 <1>        -0.048517 
     40 C           2.394936   -4.347003    0.380851 C.3       1 <1>        -0.046183 
     41 C           2.616690   -0.633142    1.467858 C.2       1 <1>        -0.081074 
     42 C           3.828708   -0.560680    2.037873 C.2       1 <1>        -0.055410 
     43 C           5.333983   -4.072013    1.264405 C.3       1 <1>        -0.017380 
     44 C           6.824381   -3.730352    1.564966 C.3       1 <1>         0.063916 
     45 C          -2.522114    2.836396   -1.341400 C.3       1 <1>         0.079566 
     46 O          -1.934932    2.191757   -2.490978 O.3       1 <1>        -0.346049 
     47 C          -1.007242    3.024548   -3.207581 C.3       1 <1>         0.188012 
     48 O          -1.660642    4.157351   -3.811995 O.3       1 <1>        -0.340532 
     49 C          -2.555936    3.825897   -4.897689 C.3       1 <1>         0.113005 
     50 C          -1.870594    2.965478   -5.997243 C.3       1 <1>         0.111896 
     51 C          -1.189524    1.717522   -5.376273 C.3       1 <1>         0.114061 
     52 C          -0.231597    2.169656   -4.241277 C.3       1 <1>         0.134113 
     53 C          -1.742291   -4.660448   -1.089935 C.3       1 <1>         0.052209 
     54 O          -1.397762   -5.971928   -0.598542 O.3       1 <1>        -0.394374 
     55 C          -2.467070   -4.045337    1.198643 C.3       1 <1>        -0.054821 
     56 C          -0.104076   -1.627416    2.331497 C.3       1 <1>        -0.058736 
     57 C           2.540308   -3.458147    2.780585 C.3       1 <1>        -0.058408 
     58 C           4.721669   -2.272900   -0.380348 C.3       1 <1>        -0.056020 
     59 C           8.475464    1.437396    3.905745 C.3       1 <1>        -0.059801 
     60 C           8.953744    0.478762    1.628483 C.3       1 <1>        -0.059801 
     61 O           7.478762   -4.890139    2.115908 O.3       1 <1>        -0.391131 
     62 C          -3.930526    3.268402   -4.435465 C.3       1 <1>         0.073015 
     63 O          -4.821921    3.210952   -5.567071 O.3       1 <1>        -0.392366 
     64 O          -0.911777    3.793213   -6.690784 O.3       1 <1>        -0.386488 
     65 O          -2.193664    0.790327   -4.917763 O.3       1 <1>        -0.386401 
     66 O           0.887806    2.931119   -4.742938 O.3       1 <1>        -0.384104 
     67 H          -5.473688    4.366560    1.839981 H         1 <1>         0.093751 
     68 H          -6.904704    6.177228    1.005507 H         1 <1>         0.067095 
     69 H          -6.097705    5.164866   -1.785559 H         1 <1>         0.064757 
     70 H          -8.842315    5.246322   -0.401141 H         1 <1>         0.064584 
     71 H          -7.084685    2.810000   -1.104830 H         1 <1>         0.062075 
     72 H          -3.549676    2.815674    1.221090 H         1 <1>         0.065052 
     73 H          -6.005492    1.132219    0.484096 H         1 <1>         0.064768 
     74 H          -3.570627    0.360436    2.193899 H         1 <1>         0.067095 
     75 H          -4.403048   -0.692779   -0.565270 H         1 <1>         0.093750 
     76 H          -4.269955    1.591284   -1.510403 H         1 <1>         0.064687 
     77 H          -5.110535    7.336464   -0.067198 H         1 <1>         0.210110 
     78 H          -7.570417    6.944961   -2.383132 H         1 <1>         0.210005 
     79 H          -9.432006    4.176839   -2.460801 H         1 <1>         0.210002 
     80 H          -9.498283    2.195722   -1.123439 H         1 <1>         0.025536 
     81 H          -8.710337    1.540911    0.334263 H         1 <1>         0.025536 
     82 H          -9.729423    3.000914    0.460618 H         1 <1>         0.025536 
     83 H          -6.240347    1.257992    2.855788 H         1 <1>         0.210005 
     84 H          -4.754760   -1.713277    2.159785 H         1 <1>         0.210110 
     85 H          -2.918034   -2.425614   -1.289470 H         1 <1>         0.060308 
     86 H           0.002658   -4.072965    1.362901 H         1 <1>         0.031301 
     87 H           2.267601   -1.768547   -0.212819 H         1 <1>         0.035379 
     88 H           5.963036   -3.875689    4.043140 H         1 <1>         0.056652 
     89 H           6.428729   -2.310194    4.710923 H         1 <1>         0.056652 
     90 H           6.642726   -1.085730    0.950208 H         1 <1>         0.033899 
     91 H           6.322913    0.892380    2.275269 H         1 <1>         0.027428 
     92 H           6.224414   -0.037887    3.787542 H         1 <1>         0.027428 
     93 H           9.913163   -0.962905    3.778764 H         1 <1>         0.027062 
     94 H           8.421278   -1.126753    4.711810 H         1 <1>         0.027062 
     95 H           9.087550   -2.394160    1.995848 H         1 <1>         0.027239 
     96 H           8.818958   -3.229101    3.532825 H         1 <1>         0.027239 
     97 H          -1.437906   -0.559749   -1.787268 H         1 <1>         0.029048 
     98 H          -0.471750   -2.018481   -1.905558 H         1 <1>         0.029048 
     99 H          -0.623362   -0.074631    0.470489 H         1 <1>         0.027158 
    100 H           0.695152   -0.293171   -0.626640 H         1 <1>         0.027158 
    101 H           0.772228   -5.108490   -0.740687 H         1 <1>         0.026847 
    102 H           1.237902   -3.512376   -1.305746 H         1 <1>         0.026847 
    103 H           2.291321   -5.243712    1.014672 H         1 <1>         0.027097 
    104 H           3.129063   -4.635703   -0.382057 H         1 <1>         0.027097 
    105 H           2.018362    0.279608    1.444656 H         1 <1>         0.057297 
    106 H           4.081988    0.397760    2.486185 H         1 <1>         0.059762 
    107 H           5.323168   -4.706850    0.365084 H         1 <1>         0.029668 
    108 H           4.986524   -4.720281    2.073409 H         1 <1>         0.029668 
    109 H           7.356560   -3.457926    0.637183 H         1 <1>         0.059965 
    110 H          -1.747357    3.056566   -0.589865 H         1 <1>         0.058744 
    111 H          -3.019228    3.778114   -1.621341 H         1 <1>         0.058744 
    112 H          -0.250897    3.419284   -2.508653 H         1 <1>         0.093741 
    113 H          -2.793070    4.795073   -5.367032 H         1 <1>         0.064668 
    114 H          -2.633186    2.634297   -6.723773 H         1 <1>         0.064673 
    115 H          -0.604578    1.208643   -6.161724 H         1 <1>         0.064758 
    116 H           0.157838    1.279957   -3.716020 H         1 <1>         0.067095 
    117 H          -2.801228   -4.720629   -1.396747 H         1 <1>         0.056334 
    118 H          -1.157119   -4.404901   -1.988299 H         1 <1>         0.056334 
    119 H          -1.501399   -6.664576   -1.245020 H         1 <1>         0.209420 
    120 H          -3.523467   -4.071050    0.888607 H         1 <1>         0.023667 
    121 H          -2.193859   -5.057382    1.534181 H         1 <1>         0.023667 
    122 H          -2.394861   -3.393027    2.077878 H         1 <1>         0.023667 
    123 H           0.359149   -0.725246    2.751166 H         1 <1>         0.023534 
    124 H           0.024405   -2.425230    3.069255 H         1 <1>         0.023534 
    125 H          -1.180326   -1.424097    2.304812 H         1 <1>         0.023534 
    126 H           3.284201   -4.085544    3.279896 H         1 <1>         0.023543 
    127 H           2.445385   -2.538102    3.374538 H         1 <1>         0.023543 
    128 H           1.611276   -4.019794    2.909984 H         1 <1>         0.023543 
    129 H           4.153792   -2.794432   -1.160911 H         1 <1>         0.023625 
    130 H           4.499971   -1.199300   -0.475147 H         1 <1>         0.023625 
    131 H           5.769568   -2.394735   -0.680804 H         1 <1>         0.023625 
    132 H           9.551742    1.590523    4.079550 H         1 <1>         0.023499 
    133 H           8.068578    2.349962    3.443413 H         1 <1>         0.023499 
    134 H           7.989039    1.307762    4.884824 H         1 <1>         0.023499 
    135 H          10.029281    0.643367    1.794868 H         1 <1>         0.023499 
    136 H           8.540284    1.384800    1.159712 H         1 <1>         0.023499 
    137 H           8.854434   -0.341218    0.906480 H         1 <1>         0.023499 
    138 H           7.463148   -5.645936    1.536538 H         1 <1>         0.209802 
    139 H          -3.837781    2.270311   -3.986987 H         1 <1>         0.058370 
    140 H          -4.348338    3.953110   -3.678733 H         1 <1>         0.058370 
    141 H          -5.693320    2.895186   -5.344863 H         1 <1>         0.209508 
    142 H          -0.470634    3.354498   -7.410962 H         1 <1>         0.210004 
    143 H          -1.837624    0.003810   -4.516397 H         1 <1>         0.210005 
    144 H           1.424981    2.457423   -5.369626 H         1 <1>         0.210110 
@<TRIPOS>BOND
     1    1    2 1    
     2    1    6 1    
     3    2    3 1    
     4    2    7 1    
     5    2   67 1    
     6    3    4 1    
     7    3   14 1    
     8    3   68 1    
     9    4    5 1    
    10    4   15 1    
    11    4   69 1    
    12    5    6 1    
    13    5   16 1    
    14    5   70 1    
    15    6   17 1    
    16    6   71 1    
    17    7    8 1    
    18    8    9 1    
    19    8   13 1    
    20    8   72 1    
    21    9   10 1    
    22    9   18 1    
    23    9   73 1    
    24   10   11 1    
    25   10   19 1    
    26   10   74 1    
    27   11   12 1    
    28   11   20 1    
    29   11   75 1    
    30   12   13 1    
    31   13   45 1    
    32   13   76 1    
    33   14   77 1    
    34   15   78 1    
    35   16   79 1    
    36   17   80 1    
    37   17   81 1    
    38   17   82 1    
    39   18   83 1    
    40   19   84 1    
    41   20   21 1    
    42   21   22 1    
    43   21   37 1    
    44   21   85 1    
    45   22   23 1    
    46   22   53 1    
    47   22   55 1    
    48   23   24 1    
    49   23   39 1    
    50   23   86 1    
    51   24   25 1    
    52   24   38 1    
    53   24   56 1    
    54   25   26 1    
    55   25   41 1    
    56   25   87 1    
    57   26   27 1    
    58   26   40 1    
    59   26   57 1    
    60   27   28 1    
    61   27   43 1    
    62   27   58 1    
    63   28   29 1    
    64   28   32 1    
    65   28   42 1    
    66   29   30 1    
    67   30   31 1    
    68   30   88 1    
    69   30   89 1    
    70   31   32 1    
    71   31   36 1    
    72   31   44 1    
    73   32   33 1    
    74   32   90 1    
    75   33   34 1    
    76   33   91 1    
    77   33   92 1    
    78   34   35 1    
    79   34   59 1    
    80   34   60 1    
    81   35   36 1    
    82   35   93 1    
    83   35   94 1    
    84   36   95 1    
    85   36   96 1    
    86   37   38 1    
    87   37   97 1    
    88   37   98 1    
    89   38   99 1    
    90   38  100 1    
    91   39   40 1    
    92   39  101 1    
    93   39  102 1    
    94   40  103 1    
    95   40  104 1    
    96   41   42 2    
    97   41  105 1    
    98   42  106 1    
    99   43   44 1    
   100   43  107 1    
   101   43  108 1    
   102   44   61 1    
   103   44  109 1    
   104   45   46 1    
   105   45  110 1    
   106   45  111 1    
   107   46   47 1    
   108   47   48 1    
   109   47   52 1    
   110   47  112 1    
   111   48   49 1    
   112   49   50 1    
   113   49   62 1    
   114   49  113 1    
   115   50   51 1    
   116   50   64 1    
   117   50  114 1    
   118   51   52 1    
   119   51   65 1    
   120   51  115 1    
   121   52   66 1    
   122   52  116 1    
   123   53   54 1    
   124   53  117 1    
   125   53  118 1    
   126   54  119 1    
   127   55  120 1    
   128   55  121 1    
   129   55  122 1    
   130   56  123 1    
   131   56  124 1    
   132   56  125 1    
   133   57  126 1    
   134   57  127 1    
   135   57  128 1    
   136   58  129 1    
   137   58  130 1    
   138   58  131 1    
   139   59  132 1    
   140   59  133 1    
   141   59  134 1    
   142   60  135 1    
   143   60  136 1    
   144   60  137 1    
   145   61  138 1    
   146   62   63 1    
   147   62  139 1    
   148   62  140 1    
   149   63  141 1    
   150   64  142 1    
   151   65  143 1    
   152   66  144 1    
@<TRIPOS>SUBSTRUCTURE
     1 ****        1 TEMP              0 ****  ****    0 ROOT 
@<TRIPOS>NORMAL
@<TRIPOS>FF_PBC
FORCE_FIELD_SETUP_FEATURE Force Field Setup information
v1.0  0 0.000000 0.000000 0.000000 0.000000 0.000000 0.000000 NONE 0 0 0 0 1 0 0 0 0 0 0 0 0
