@<TRIPOS>MOLECULE
MOL002972
   39    39     1     1     0
SMALL
GASTEIGER


@<TRIPOS>ATOM
      1 C          -1.269780   -0.893930   -0.514240 C.3       1 <1>        -0.016427 
      2 C           0.041583   -0.157381   -0.737336 C.2       1 <1>        -0.072936 
      3 C          -1.122720   -2.414868   -0.774101 C.3       1 <1>        -0.027983 
      4 C          -2.425368   -0.342924   -1.385661 C.3       1 <1>        -0.042558 
      5 C          -3.638238   -2.503100   -0.810012 C.2       1 <1>        -0.076493 
      6 C          -2.452799   -3.128086   -0.739290 C.2       1 <1>        -0.084465 
      7 C          -3.756627   -1.000986   -0.941528 C.3       1 <1>        -0.031457 
      8 C           0.678021    0.443784    0.503758 C.3       1 <1>        -0.028281 
      9 C           0.580124   -0.062456   -1.962510 C.2       1 <1>        -0.099165 
     10 C           2.011807    1.218350    0.316669 C.3       1 <1>        -0.030838 
     11 C          -4.945827   -3.261369   -0.755932 C.3       1 <1>        -0.043787 
     12 C           2.539435    1.775072    1.620103 C.2       1 <1>        -0.084989 
     13 C           3.634133    2.546136    1.734381 C.2       1 <1>        -0.079608 
     14 C           4.088161    3.069397    3.080868 C.3       1 <1>        -0.044049 
     15 C           4.501528    2.960022    0.563973 C.3       1 <1>        -0.044049 
     16 H          -1.583008   -0.769556    0.537146 H         1 <1>         0.034857 
     17 H          -0.449206   -2.842274   -0.013456 H         1 <1>         0.031313 
     18 H          -0.680639   -2.601073   -1.764509 H         1 <1>         0.031313 
     19 H          -2.493433    0.752695   -1.280852 H         1 <1>         0.027409 
     20 H          -2.251418   -0.579285   -2.447225 H         1 <1>         0.027409 
     21 H          -2.417973   -4.215219   -0.656401 H         1 <1>         0.057172 
     22 H          -4.538784   -0.741945   -1.673744 H         1 <1>         0.031008 
     23 H          -4.063284   -0.602788    0.038998 H         1 <1>         0.031008 
     24 H          -0.051615    1.137992    0.951850 H         1 <1>         0.031295 
     25 H           0.856038   -0.378867    1.215453 H         1 <1>         0.031295 
     26 H           1.513793    0.452853   -2.174070 H         1 <1>         0.053449 
     27 H           0.102718   -0.507841   -2.832984 H         1 <1>         0.053449 
     28 H           2.769876    0.535865   -0.099868 H         1 <1>         0.031044 
     29 H           1.837783    2.055643   -0.378003 H         1 <1>         0.031044 
     30 H          -4.806449   -4.341094   -0.595258 H         1 <1>         0.027436 
     31 H          -5.491016   -3.123041   -1.701585 H         1 <1>         0.027436 
     32 H          -5.561310   -2.869654    0.067830 H         1 <1>         0.027436 
     33 H           1.982067    1.524334    2.523421 H         1 <1>         0.057155 
     34 H           5.095130    2.685281    3.302490 H         1 <1>         0.027427 
     35 H           3.422972    2.776616    3.907323 H         1 <1>         0.027427 
     36 H           4.129229    4.168648    3.051756 H         1 <1>         0.027427 
     37 H           4.204280    2.522449   -0.398406 H         1 <1>         0.027427 
     38 H           5.541257    2.657332    0.758685 H         1 <1>         0.027427 
     39 H           4.469557    4.055171    0.462563 H         1 <1>         0.027427 
@<TRIPOS>BOND
     1    1    2 1    
     2    1    3 1    
     3    1    4 1    
     4    1   16 1    
     5    2    8 1    
     6    2    9 2    
     7    3    6 1    
     8    3   17 1    
     9    3   18 1    
    10    4    7 1    
    11    4   19 1    
    12    4   20 1    
    13    6    5 2    
    14    5    7 1    
    15    5   11 1    
    16    6   21 1    
    17    7   22 1    
    18    7   23 1    
    19    8   10 1    
    20    8   24 1    
    21    8   25 1    
    22    9   26 1    
    23    9   27 1    
    24   10   12 1    
    25   10   28 1    
    26   10   29 1    
    27   11   30 1    
    28   11   31 1    
    29   11   32 1    
    30   12   13 2    
    31   12   33 1    
    32   13   14 1    
    33   13   15 1    
    34   14   34 1    
    35   14   35 1    
    36   14   36 1    
    37   15   37 1    
    38   15   38 1    
    39   15   39 1    
@<TRIPOS>SUBSTRUCTURE
     1 ****        1 TEMP              0 ****  ****    0 ROOT 
@<TRIPOS>NORMAL
@<TRIPOS>FF_PBC
FORCE_FIELD_SETUP_FEATURE Force Field Setup information
v1.0  0 0.000000 0.000000 0.000000 0.000000 0.000000 0.000000 NONE 0 0 0 0 1 0 0 0 0 0 0 0 0
