@<TRIPOS>MOLECULE
MOL000697
   18    17     1     1     0
SMALL
GASTEIGER


@<TRIPOS>ATOM
      1 C           0.819450   -0.276863   -0.437993 C.3       1 <1>         0.106123 
      2 C          -0.566378   -0.970921   -0.286866 C.3       1 <1>         0.106123 
      3 C           0.724401    1.258753   -0.647387 C.3       1 <1>         0.072639 
      4 O           1.638862   -0.554040    0.715738 O.3       1 <1>        -0.386881 
      5 C          -1.323800   -0.499222    0.983717 C.3       1 <1>         0.072639 
      6 O          -0.342580   -2.396671   -0.251252 O.3       1 <1>        -0.386881 
      7 O           2.021442    1.742939   -1.047881 O.3       1 <1>        -0.392376 
      8 O          -1.782617    0.854935    0.807107 O.3       1 <1>        -0.392376 
      9 H           1.294125   -0.712580   -1.335573 H         1 <1>         0.064278 
     10 H          -1.183892   -0.732796   -1.171217 H         1 <1>         0.064278 
     11 H           0.430433    1.741700    0.298528 H         1 <1>         0.058360 
     12 H          -0.023708    1.492164   -1.423652 H         1 <1>         0.058360 
     13 H           2.507001   -0.169210    0.635672 H         1 <1>         0.209989 
     14 H          -0.659834   -0.591437    1.859332 H         1 <1>         0.058360 
     15 H          -2.200112   -1.150338    1.141881 H         1 <1>         0.058360 
     16 H          -1.141307   -2.913618   -0.215565 H         1 <1>         0.209989 
     17 H           2.043076    2.685361   -1.188360 H         1 <1>         0.209508 
     18 H          -2.254563    1.191744    1.563769 H         1 <1>         0.209508 
@<TRIPOS>BOND
     1    1    2 1    
     2    1    3 1    
     3    1    4 1    
     4    1    9 1    
     5    2    5 1    
     6    2    6 1    
     7    2   10 1    
     8    3    7 1    
     9    3   11 1    
    10    3   12 1    
    11    4   13 1    
    12    5    8 1    
    13    5   14 1    
    14    5   15 1    
    15    6   16 1    
    16    7   17 1    
    17    8   18 1    
@<TRIPOS>SUBSTRUCTURE
     1 ****        1 TEMP              0 ****  ****    0 ROOT 
@<TRIPOS>NORMAL
@<TRIPOS>FF_PBC
FORCE_FIELD_SETUP_FEATURE Force Field Setup information
v1.0  0 0.000000 0.000000 0.000000 0.000000 0.000000 0.000000 NONE 0 0 0 0 1 0 0 0 0 0 0 0 0
