@<TRIPOS>MOLECULE
MOL002459
   59    59     1     1     0
SMALL
GASTEIGER


@<TRIPOS>ATOM
      1 C           1.416720   -1.895757    0.251083 C.ar      1 <1>        -0.044363 
      2 C           1.282236   -2.781128    1.432626 C.ar      1 <1>        -0.025965 
      3 C           0.578114   -2.107746   -0.860900 C.ar      1 <1>        -0.055971 
      4 C           2.449279   -0.759472    0.248244 C.3       1 <1>        -0.020924 
      5 C           0.314367   -3.807468    1.473580 C.ar      1 <1>         0.105659 
      6 C          -0.455856   -3.167218   -0.820926 C.ar      1 <1>        -0.029141 
      7 C           1.861622    0.443643    1.031173 C.3       1 <1>         0.009887 
      8 C          -0.605779   -3.992682    0.315872 C.ar      1 <1>         0.102451 
      9 O           0.262243   -4.618318    2.618829 O.3       1 <1>        -0.345341 
     10 C           2.580622    1.748830    0.770975 C.2       1 <1>         0.136114 
     11 O          -1.616239   -4.962231    0.344872 O.3       1 <1>        -0.357269 
     12 C          -0.290916   -5.943742    2.568229 C.3       1 <1>         0.043136 
     13 C           1.848911    3.029283    1.088730 C.3       1 <1>         0.031865 
     14 O           3.710843    1.761015    0.319171 O.2       1 <1>        -0.297311 
     15 C           2.073529    4.193965    0.073928 C.3       1 <1>         0.061899 
     16 C           2.347743    3.781809   -1.413215 C.3       1 <1>        -0.026454 
     17 O           3.185254    4.969091    0.568754 O.3       1 <1>        -0.391370 
     18 C           1.472950    2.645269   -2.024911 C.3       1 <1>        -0.050713 
     19 C          -0.062166    2.845931   -1.880034 C.3       1 <1>        -0.052977 
     20 C          -0.822645    1.524520   -2.197160 C.3       1 <1>        -0.053056 
     21 C          -2.354825    1.599945   -1.928958 C.3       1 <1>        -0.053057 
     22 C          -2.770690    1.517239   -0.427634 C.3       1 <1>        -0.053065 
     23 C          -2.528609    0.123306    0.229163 C.3       1 <1>        -0.053306 
     24 C          -2.854698    0.145159    1.749435 C.3       1 <1>        -0.055911 
     25 C          -2.678997   -1.257027    2.394076 C.3       1 <1>        -0.065276 
     26 H           1.941852   -2.646346    2.284596 H         1 <1>         0.064684 
     27 H           0.672892   -1.495886   -1.750549 H         1 <1>         0.062110 
     28 H           2.666436   -0.469548   -0.788682 H         1 <1>         0.031720 
     29 H           3.392012   -1.095116    0.704129 H         1 <1>         0.031720 
     30 H          -1.105179   -3.293900   -1.679797 H         1 <1>         0.064412 
     31 H           1.889141    0.235040    2.111627 H         1 <1>         0.034471 
     32 H           0.807926    0.548333    0.730685 H         1 <1>         0.034471 
     33 H          -2.293665   -4.842992   -0.310234 H         1 <1>         0.217422 
     34 H          -0.017522   -6.449868    3.507415 H         1 <1>         0.052871 
     35 H           0.125453   -6.514581    1.726026 H         1 <1>         0.052871 
     36 H          -1.386384   -5.920275    2.504148 H         1 <1>         0.052871 
     37 H           2.182032    3.352669    2.085692 H         1 <1>         0.036674 
     38 H           0.772897    2.824171    1.182331 H         1 <1>         0.036674 
     39 H           1.183179    4.850633    0.113114 H         1 <1>         0.059722 
     40 H           3.397495    3.454298   -1.493259 H         1 <1>         0.029013 
     41 H           2.253230    4.677976   -2.047550 H         1 <1>         0.029013 
     42 H           3.383301    5.749142    0.056867 H         1 <1>         0.209791 
     43 H           1.710814    2.558843   -3.097996 H         1 <1>         0.026608 
     44 H           1.761326    1.688291   -1.577648 H         1 <1>         0.026608 
     45 H          -0.302858    3.157489   -0.857926 H         1 <1>         0.026529 
     46 H          -0.387837    3.649080   -2.562438 H         1 <1>         0.026529 
     47 H          -0.651364    1.270699   -3.255825 H         1 <1>         0.026528 
     48 H          -0.392402    0.707015   -1.608528 H         1 <1>         0.026528 
     49 H          -2.865738    0.783141   -2.464757 H         1 <1>         0.026528 
     50 H          -2.724470    2.549715   -2.350921 H         1 <1>         0.026528 
     51 H          -3.854917    1.719314   -0.363758 H         1 <1>         0.026528 
     52 H          -2.258981    2.302232    0.148794 H         1 <1>         0.026528 
     53 H          -1.482586   -0.196793    0.135827 H         1 <1>         0.026520 
     54 H          -3.156530   -0.627995   -0.278047 H         1 <1>         0.026520 
     55 H          -3.891774    0.488660    1.904335 H         1 <1>         0.026265 
     56 H          -2.177916    0.856628    2.255962 H         1 <1>         0.026265 
     57 H          -2.900923   -1.206984    3.472096 H         1 <1>         0.022978 
     58 H          -1.646729   -1.618963    2.267522 H         1 <1>         0.022978 
     59 H          -3.366957   -1.982675    1.932152 H         1 <1>         0.022978 
@<TRIPOS>BOND
     1    1    2 1    
     2    1    3 2    
     3    1    4 1    
     4    2    5 2    
     5    2   26 1    
     6    3    6 1    
     7    3   27 1    
     8    4    7 1    
     9    4   28 1    
    10    4   29 1    
    11    5    8 1    
    12    5    9 1    
    13    6    8 2    
    14    6   30 1    
    15    7   10 1    
    16    7   31 1    
    17    7   32 1    
    18    8   11 1    
    19    9   12 1    
    20   10   13 1    
    21   10   14 2    
    22   11   33 1    
    23   12   34 1    
    24   12   35 1    
    25   12   36 1    
    26   13   15 1    
    27   13   37 1    
    28   13   38 1    
    29   15   16 1    
    30   15   17 1    
    31   15   39 1    
    32   16   18 1    
    33   16   40 1    
    34   16   41 1    
    35   17   42 1    
    36   18   19 1    
    37   18   43 1    
    38   18   44 1    
    39   19   20 1    
    40   19   45 1    
    41   19   46 1    
    42   20   21 1    
    43   20   47 1    
    44   20   48 1    
    45   21   22 1    
    46   21   49 1    
    47   21   50 1    
    48   22   23 1    
    49   22   51 1    
    50   22   52 1    
    51   23   24 1    
    52   23   53 1    
    53   23   54 1    
    54   24   25 1    
    55   24   55 1    
    56   24   56 1    
    57   25   57 1    
    58   25   58 1    
    59   25   59 1    
@<TRIPOS>SUBSTRUCTURE
     1 ****        1 TEMP              0 ****  ****    0 ROOT 
@<TRIPOS>NORMAL
@<TRIPOS>FF_PBC
FORCE_FIELD_SETUP_FEATURE Force Field Setup information
v1.0  0 0.000000 0.000000 0.000000 0.000000 0.000000 0.000000 NONE 0 0 0 0 1 0 0 0 0 0 0 0 0
