@<TRIPOS>MOLECULE
MOL008045
   38    40     1     1     0
SMALL
GASTEIGER


@<TRIPOS>ATOM
      1 O          -0.065870    0.907251    0.251038 O.3       1 <1>        -0.285630 
      2 O          -1.565908    2.666405    0.119150 O.3       1 <1>        -0.286517 
      3 O           5.154355   -1.330159    0.402539 O.3       1 <1>        -0.342946 
      4 O           4.831129    1.470040    0.218520 O.3       1 <1>        -0.356589 
      5 O           2.823817   -3.036996    0.578856 O.3       1 <1>        -0.357150 
      6 O           2.994073    3.502697    0.055819 O.2       1 <1>        -0.286945 
      7 O          -5.496473   -1.432783    0.439346 O.3       1 <1>        -0.347910 
      8 C           2.350513    1.202989    0.233638 C.ar      1 <1>         0.084635 
      9 C           1.226760    0.374078    0.296205 C.ar      1 <1>         0.101212 
     10 C           3.717300    0.629584    0.278116 C.ar      1 <1>         0.118465 
     11 C           3.874341   -0.772427    0.378440 C.ar      1 <1>         0.136015 
     12 C           1.401186   -1.091962    0.413811 C.ar      1 <1>         0.002089 
     13 C           2.092464    2.683665    0.119501 C.2       1 <1>         0.195584 
     14 C           2.682095   -1.653998    0.458191 C.ar      1 <1>         0.107532 
     15 C          -0.305585    2.227254    0.152476 C.2       1 <1>         0.198112 
     16 C           0.693010    3.114552    0.087019 C.2       1 <1>         0.040973 
     17 C          -2.527653    1.661548    0.187450 C.ar      1 <1>         0.085498 
     18 C          -3.030061    1.257596    1.424336 C.ar      1 <1>        -0.028658 
     19 C          -3.015711    1.019678   -1.054343 C.ar      1 <1>        -0.028658 
     20 C          -4.527209   -0.428193    0.323364 C.ar      1 <1>         0.075971 
     21 C          -4.053458    0.187720    1.492230 C.ar      1 <1>        -0.029238 
     22 C          -3.987079    0.004257   -0.993268 C.ar      1 <1>        -0.029238 
     23 C           5.660243   -1.672488   -0.899361 C.3       1 <1>         0.043242 
     24 C          -6.046190   -2.077648   -0.720320 C.3       1 <1>         0.043026 
     25 H           0.528313   -1.732702    0.468343 H         1 <1>         0.067032 
     26 H           0.468349    4.177437    0.007933 H         1 <1>         0.070334 
     27 H          -2.669484    1.727735    2.332652 H         1 <1>         0.064424 
     28 H          -2.615786    1.340456   -2.010236 H         1 <1>         0.064424 
     29 H           5.641745    1.010322    0.413457 H         1 <1>         0.217446 
     30 H          -4.443789   -0.125543    2.454351 H         1 <1>         0.064407 
     31 H          -4.325540   -0.447389   -1.917686 H         1 <1>         0.064407 
     32 H           3.727510   -3.284264    0.747485 H         1 <1>         0.217424 
     33 H           5.735335   -0.781153   -1.541884 H         1 <1>         0.052872 
     34 H           5.016293   -2.418238   -1.391262 H         1 <1>         0.052872 
     35 H           6.665173   -2.102442   -0.775846 H         1 <1>         0.052872 
     36 H          -6.555228   -1.350696   -1.371734 H         1 <1>         0.052869 
     37 H          -6.787817   -2.812928   -0.375071 H         1 <1>         0.052869 
     38 H          -5.265363   -2.611560   -1.283252 H         1 <1>         0.052869 
@<TRIPOS>BOND
     1    1    9 1    
     2   15    1 1    
     3    2   15 1    
     4   17    2 1    
     5   11    3 1    
     6    3   23 1    
     7   10    4 1    
     8    4   29 1    
     9   14    5 1    
    10    5   32 1    
    11   13    6 2    
    12   20    7 1    
    13    7   24 1    
    14    9    8 2    
    15    8   10 1    
    16   13    8 1    
    17    9   12 1    
    18   10   11 2    
    19   14   11 1    
    20   12   14 2    
    21   12   25 1    
    22   16   13 1    
    23   15   16 2    
    24   16   26 1    
    25   18   17 2    
    26   17   19 1    
    27   21   18 1    
    28   18   27 1    
    29   19   22 2    
    30   19   28 1    
    31   20   21 2    
    32   20   22 1    
    33   21   30 1    
    34   22   31 1    
    35   23   33 1    
    36   23   34 1    
    37   23   35 1    
    38   24   36 1    
    39   24   37 1    
    40   24   38 1    
@<TRIPOS>SUBSTRUCTURE
     1 ****        7 TEMP              0 ****  ****    0 ROOT 
@<TRIPOS>NORMAL
@<TRIPOS>FF_PBC
FORCE_FIELD_SETUP_FEATURE Force Field Setup information
v1.0  0 0.000000 0.000000 0.000000 0.000000 0.000000 0.000000 NONE 0 0 0 0 1 0 0 0 0 0 0 0 0
