@<TRIPOS>MOLECULE
MOL013263
   26    25     1     1     0
SMALL
GASTEIGER


@<TRIPOS>ATOM
      1 C           0.041612   -0.271488   -0.875981 C.3       1 <1>        -0.045405 
      2 C           1.414308   -0.976802   -0.687355 C.3       1 <1>        -0.031961 
      3 C          -0.660985    0.002471    0.480098 C.3       1 <1>        -0.027961 
      4 C           2.427830   -0.178632    0.111539 C.2       1 <1>        -0.079683 
      5 C          -2.037756    0.602729    0.257402 C.2       1 <1>        -0.054976 
      6 C           2.802361    1.185169   -0.427073 C.3       1 <1>        -0.044040 
      7 C           2.983463   -0.661565    1.232289 C.2       1 <1>        -0.099710 
      8 C          -3.241767   -0.247858    0.085793 C.2       1 <1>        -0.066231 
      9 C          -2.173645    1.935494    0.225491 C.2       1 <1>        -0.095514 
     10 C          -3.277486   -1.586871    0.064861 C.2       1 <1>        -0.098452 
     11 H           0.169365    0.674378   -1.423173 H         1 <1>         0.027141 
     12 H          -0.602233   -0.917328   -1.494401 H         1 <1>         0.027141 
     13 H           1.227027   -1.954043   -0.215537 H         1 <1>         0.030991 
     14 H           1.854965   -1.177894   -1.677569 H         1 <1>         0.030991 
     15 H          -0.039009    0.683629    1.082718 H         1 <1>         0.031308 
     16 H          -0.735289   -0.925760    1.062435 H         1 <1>         0.031308 
     17 H           3.102782    1.098104   -1.481716 H         1 <1>         0.027427 
     18 H           3.640305    1.635569    0.124910 H         1 <1>         0.027427 
     19 H           1.951665    1.875936   -0.355772 H         1 <1>         0.027427 
     20 H           2.725347   -1.643428    1.625096 H         1 <1>         0.053432 
     21 H           3.717915   -0.091216    1.799856 H         1 <1>         0.053432 
     22 H          -4.204892    0.252543   -0.039421 H         1 <1>         0.061433 
     23 H          -1.320666    2.602910    0.343156 H         1 <1>         0.053749 
     24 H          -3.141000    2.416333    0.077041 H         1 <1>         0.053749 
     25 H          -4.225650   -2.111134   -0.059591 H         1 <1>         0.053489 
     26 H          -2.399271   -2.220546    0.164203 H         1 <1>         0.053489 
@<TRIPOS>BOND
     1    1    2 1    
     2    1    3 1    
     3    1   11 1    
     4    1   12 1    
     5    2    4 1    
     6    2   13 1    
     7    2   14 1    
     8    3    5 1    
     9    3   15 1    
    10    3   16 1    
    11    4    6 1    
    12    4    7 2    
    13    5    8 1    
    14    5    9 2    
    15    6   17 1    
    16    6   18 1    
    17    6   19 1    
    18    7   20 1    
    19    7   21 1    
    20    8   10 2    
    21    8   22 1    
    22    9   23 1    
    23    9   24 1    
    24   10   25 1    
    25   10   26 1    
@<TRIPOS>SUBSTRUCTURE
     1 ****        1 TEMP              0 ****  ****    0 ROOT 
@<TRIPOS>NORMAL
@<TRIPOS>FF_PBC
FORCE_FIELD_SETUP_FEATURE Force Field Setup information
v1.0  0 0.000000 0.000000 0.000000 0.000000 0.000000 0.000000 NONE 0 0 0 0 1 0 0 0 0 0 0 0 0
