@<TRIPOS>MOLECULE
MOL004977
   61    64     1     1     0
SMALL
GASTEIGER


@<TRIPOS>ATOM
      1 C          -2.975701   -2.032762    0.826636 C.ar      1 <1>        -0.001113 
      2 C          -1.627615   -1.446252    0.684874 C.ar      1 <1>         0.086784 
      3 C          -1.498248   -0.147256    0.351200 C.ar      1 <1>         0.042571 
      4 C          -2.713661    0.673049    0.096749 C.ar      1 <1>         0.089842 
      5 C          -3.957411    0.138012    0.230010 C.ar      1 <1>         0.016475 
      6 C          -4.075556   -1.290570    0.638534 C.ar      1 <1>         0.080954 
      7 C          -0.113237    0.507332    0.245491 C.3       1 <1>         0.103917 
      8 C           1.035886   -0.419659    0.734945 C.3       1 <1>         0.041495 
      9 C           0.717623   -1.865294    0.302148 C.3       1 <1>         0.063815 
     10 O          -0.511418   -2.253957    0.928090 O.3       1 <1>        -0.343474 
     11 C           2.176354    0.142395   -0.093428 C.ar      1 <1>        -0.008867 
     12 C           1.646316    0.872301   -1.049962 C.ar      1 <1>         0.083048 
     13 C           2.514287    1.594496   -2.000999 C.ar      1 <1>        -0.001327 
     14 C           3.851323    1.462493   -1.887193 C.ar      1 <1>         0.078498 
     15 C           3.639703   -0.033523    0.050624 C.ar      1 <1>        -0.049770 
     16 C           4.454437    0.566964   -0.848929 C.ar      1 <1>        -0.013506 
     17 O          -5.321995   -1.880060    0.841269 O.3       1 <1>        -0.359385 
     18 C          -5.208219    0.999317   -0.031389 C.3       1 <1>        -0.004342 
     19 C          -6.462422    0.213586   -0.360457 C.2       1 <1>        -0.080815 
     20 C          -7.672892    0.408153    0.186615 C.2       1 <1>        -0.079306 
     21 C          -8.847674   -0.473730   -0.186535 C.3       1 <1>        -0.044040 
     22 C          -7.969880    1.496154    1.202856 C.3       1 <1>        -0.044040 
     23 O          -2.545229    2.007402   -0.285129 O.3       1 <1>        -0.347107 
     24 C          -2.628612    3.007652    0.744540 C.3       1 <1>         0.043053 
     25 O           0.254310    0.919310   -1.092924 O.3       1 <1>        -0.335665 
     26 O           4.669938    2.188571   -2.748518 O.3       1 <1>        -0.359468 
     27 C           5.983407    0.355136   -0.827297 C.3       1 <1>        -0.006800 
     28 C           6.520347   -0.999713   -0.403279 C.2       1 <1>        -0.080898 
     29 C           7.823330   -1.309515   -0.313491 C.2       1 <1>        -0.079307 
     30 C           8.257615   -2.681093    0.165420 C.3       1 <1>        -0.044040 
     31 C           8.954845   -0.362204   -0.662033 C.3       1 <1>        -0.044040 
     32 H          -3.072284   -3.078524    1.099905 H         1 <1>         0.066930 
     33 H          -0.114208    1.416573    0.870398 H         1 <1>         0.065993 
     34 H           1.220401   -0.339065    1.819324 H         1 <1>         0.040101 
     35 H           1.519592   -2.545319    0.629487 H         1 <1>         0.057187 
     36 H           0.620456   -1.937034   -0.793809 H         1 <1>         0.057187 
     37 H           2.075671    2.231714   -2.763186 H         1 <1>         0.066927 
     38 H           4.023256   -0.642093    0.860640 H         1 <1>         0.062479 
     39 H          -5.682924   -1.611158    1.680263 H         1 <1>         0.217328 
     40 H          -5.345208    1.582367    0.887465 H         1 <1>         0.035721 
     41 H          -5.027753    1.697976   -0.865777 H         1 <1>         0.035721 
     42 H          -6.341540   -0.574948   -1.105263 H         1 <1>         0.057473 
     43 H          -9.539209    0.101915   -0.815809 H         1 <1>         0.027427 
     44 H          -8.548907   -1.378636   -0.735148 H         1 <1>         0.027427 
     45 H          -9.379841   -0.791613    0.720702 H         1 <1>         0.027427 
     46 H          -9.052101    1.668983    1.307088 H         1 <1>         0.027427 
     47 H          -7.580274    1.178060    2.182958 H         1 <1>         0.027427 
     48 H          -7.519824    2.459644    0.918883 H         1 <1>         0.027427 
     49 H          -2.164245    3.923244    0.353117 H         1 <1>         0.052870 
     50 H          -3.670172    3.235551    1.001634 H         1 <1>         0.052870 
     51 H          -2.094503    2.714403    1.659111 H         1 <1>         0.052870 
     52 H           5.288834    2.718862   -2.259413 H         1 <1>         0.217326 
     53 H           6.399425    1.128531   -0.165189 H         1 <1>         0.035640 
     54 H           6.357946    0.511728   -1.849700 H         1 <1>         0.035640 
     55 H           5.808211   -1.786581   -0.153143 H         1 <1>         0.057472 
     56 H           9.316354   -2.884535   -0.060730 H         1 <1>         0.027427 
     57 H           8.127527   -2.733139    1.257444 H         1 <1>         0.027427 
     58 H           7.655478   -3.473986   -0.305426 H         1 <1>         0.027427 
     59 H           8.625702    0.621547   -1.020272 H         1 <1>         0.027427 
     60 H           9.568517   -0.815683   -1.454762 H         1 <1>         0.027427 
     61 H           9.589042   -0.209838    0.222982 H         1 <1>         0.027427 
@<TRIPOS>BOND
     1    1    2 1    
     2    1    6 2    
     3    1   32 1    
     4    2    3 2    
     5    2   10 1    
     6    3    4 1    
     7    3    7 1    
     8    4    5 2    
     9    4   23 1    
    10    5    6 1    
    11    5   18 1    
    12    6   17 1    
    13    7    8 1    
    14    7   25 1    
    15    7   33 1    
    16    8    9 1    
    17    8   11 1    
    18    8   34 1    
    19    9   10 1    
    20    9   35 1    
    21    9   36 1    
    22   11   12 2    
    23   11   15 1    
    24   12   13 1    
    25   12   25 1    
    26   13   14 2    
    27   13   37 1    
    28   14   16 1    
    29   14   26 1    
    30   15   16 2    
    31   15   38 1    
    32   16   27 1    
    33   17   39 1    
    34   18   19 1    
    35   18   40 1    
    36   18   41 1    
    37   19   20 2    
    38   19   42 1    
    39   20   21 1    
    40   20   22 1    
    41   21   43 1    
    42   21   44 1    
    43   21   45 1    
    44   22   46 1    
    45   22   47 1    
    46   22   48 1    
    47   23   24 1    
    48   24   49 1    
    49   24   50 1    
    50   24   51 1    
    51   26   52 1    
    52   27   28 1    
    53   27   53 1    
    54   27   54 1    
    55   28   29 2    
    56   28   55 1    
    57   29   30 1    
    58   29   31 1    
    59   30   56 1    
    60   30   57 1    
    61   30   58 1    
    62   31   59 1    
    63   31   60 1    
    64   31   61 1    
@<TRIPOS>SUBSTRUCTURE
     1 ****        1 TEMP              0 ****  ****    0 ROOT 
@<TRIPOS>NORMAL
@<TRIPOS>FF_PBC
FORCE_FIELD_SETUP_FEATURE Force Field Setup information
v1.0  0 0.000000 0.000000 0.000000 0.000000 0.000000 0.000000 NONE 0 0 0 0 1 0 0 0 0 0 0 0 0
