@<TRIPOS>MOLECULE
MOL012590
   28    27     1     1     0
SMALL
GASTEIGER


@<TRIPOS>ATOM
      1 C           8.128172   -0.058483    0.000013 C.2       1 <1>         0.283958 
      2 C           6.754319   -0.604114   -0.000024 C.2       1 <1>         0.008734 
      3 C           5.593954    0.073531    0.000021 C.2       1 <1>        -0.066692 
      4 C           5.562837    1.589299    0.000122 C.3       1 <1>        -0.043303 
      5 C           4.288120   -0.709122   -0.000031 C.3       1 <1>        -0.028088 
      6 C           2.932149    0.050320    0.000080 C.3       1 <1>        -0.030836 
      7 C           1.745793   -0.887892    0.000030 C.2       1 <1>        -0.084989 
      8 C           0.461259   -0.492876   -0.000059 C.2       1 <1>        -0.079608 
      9 C          -0.669268   -1.500236   -0.000133 C.3       1 <1>        -0.044049 
     10 C           0.022777    0.956787   -0.000097 C.3       1 <1>        -0.044049 
     11 O           9.070713   -0.835793   -0.000033 O.2       1 <1>        -0.260084 
     12 O           8.340890    1.259272    0.000095 O.3       1 <1>        -0.327930 
     13 H           6.709451   -1.693656   -0.000098 H         1 <1>         0.067660 
     14 H           4.567896    2.048111    0.000145 H         1 <1>         0.027447 
     15 H           6.085151    1.957116    0.895983 H         1 <1>         0.027447 
     16 H           6.085165    1.957237   -0.895681 H         1 <1>         0.027447 
     17 H           4.301186   -1.358063   -0.891386 H         1 <1>         0.031297 
     18 H           4.301230   -1.358247    0.891190 H         1 <1>         0.031297 
     19 H           2.870891    0.676510    0.904631 H         1 <1>         0.031044 
     20 H           2.870845    0.676668   -0.904358 H         1 <1>         0.031044 
     21 H           1.961990   -1.956843    0.000069 H         1 <1>         0.057155 
     22 H          -0.321179   -2.544223   -0.000182 H         1 <1>         0.027427 
     23 H          -1.293188   -1.350238   -0.894017 H         1 <1>         0.027427 
     24 H          -1.293224   -1.350331    0.893741 H         1 <1>         0.027427 
     25 H           0.847251    1.682093    0.000142 H         1 <1>         0.027427 
     26 H          -0.590738    1.147803   -0.893261 H         1 <1>         0.027427 
     27 H          -0.591167    1.147731    0.892786 H         1 <1>         0.027427 
     28 H           9.266525    1.477535    0.000108 H         1 <1>         0.220537 
@<TRIPOS>BOND
     1    1    2 1    
     2    1   11 2    
     3    1   12 1    
     4    2    3 2    
     5    2   13 1    
     6    3    4 1    
     7    3    5 1    
     8    4   14 1    
     9    4   15 1    
    10    4   16 1    
    11    5    6 1    
    12    5   17 1    
    13    5   18 1    
    14    6    7 1    
    15    6   19 1    
    16    6   20 1    
    17    7    8 2    
    18    7   21 1    
    19    8    9 1    
    20    8   10 1    
    21    9   22 1    
    22    9   23 1    
    23    9   24 1    
    24   10   25 1    
    25   10   26 1    
    26   10   27 1    
    27   12   28 1    
@<TRIPOS>SUBSTRUCTURE
     1 ****        1 TEMP              0 ****  ****    0 ROOT 
@<TRIPOS>NORMAL
@<TRIPOS>FF_PBC
FORCE_FIELD_SETUP_FEATURE Force Field Setup information
v1.0  0 0.000000 0.000000 0.000000 0.000000 0.000000 0.000000 NONE 0 0 0 0 1 0 0 0 0 0 0 0 0
