@<TRIPOS>MOLECULE
MOL001273
   25    26     1     1     0
SMALL
GASTEIGER


@<TRIPOS>ATOM
      1 C           1.028735   -1.050478    0.530648 C.3       1 <1>         0.027753 
      2 C          -0.213104   -1.913362    0.521704 C.2       1 <1>         0.159646 
      3 C          -1.503909   -1.191065    0.515400 C.2       1 <1>        -0.019658 
      4 C          -1.419601    0.148955    0.484984 C.2       1 <1>        -0.065698 
      5 C          -0.034235    0.773300    0.493031 C.3       1 <1>        -0.013301 
      6 C           0.875135    0.058945   -0.549089 C.3       1 <1>        -0.018544 
      7 C           0.736634    0.022019    1.614357 C.3       1 <1>        -0.035628 
      8 O          -0.157052   -3.132031    0.520818 O.2       1 <1>        -0.292366 
      9 C           2.204424    0.827839   -0.825770 C.3       1 <1>        -0.058616 
     10 C           0.230437   -0.338791   -1.913316 C.3       1 <1>        -0.058616 
     11 C          -2.605870    1.077825    0.448223 C.3       1 <1>        -0.043107 
     12 H           1.991274   -1.582455    0.589956 H         1 <1>         0.038625 
     13 H          -2.448013   -1.734016    0.525043 H         1 <1>         0.065191 
     14 H           0.007255    1.873710    0.520924 H         1 <1>         0.035120 
     15 H           1.635350    0.550131    1.968102 H         1 <1>         0.027810 
     16 H           0.144415   -0.302634    2.486739 H         1 <1>         0.027810 
     17 H           1.991008    1.719260   -1.434680 H         1 <1>         0.023536 
     18 H           2.732701    1.163844    0.076378 H         1 <1>         0.023536 
     19 H           2.891534    0.178494   -1.388988 H         1 <1>         0.023536 
     20 H           0.945241   -0.952219   -2.482476 H         1 <1>         0.023536 
     21 H          -0.705766   -0.907450   -1.848576 H         1 <1>         0.023536 
     22 H           0.019124    0.575131   -2.489010 H         1 <1>         0.023536 
     23 H          -3.556693    0.524109    0.440415 H         1 <1>         0.027455 
     24 H          -2.588337    1.732205    1.332598 H         1 <1>         0.027455 
     25 H          -2.555513    1.699438   -0.457906 H         1 <1>         0.027455 
@<TRIPOS>BOND
     1    1    2 1    
     2    1    6 1    
     3    1    7 1    
     4    1   12 1    
     5    2    3 1    
     6    2    8 2    
     7    3    4 2    
     8    3   13 1    
     9    4    5 1    
    10    4   11 1    
    11    5    6 1    
    12    5    7 1    
    13    5   14 1    
    14    6    9 1    
    15    6   10 1    
    16    7   15 1    
    17    7   16 1    
    18    9   17 1    
    19    9   18 1    
    20    9   19 1    
    21   10   20 1    
    22   10   21 1    
    23   10   22 1    
    24   11   23 1    
    25   11   24 1    
    26   11   25 1    
@<TRIPOS>SUBSTRUCTURE
     1 ****        1 TEMP              0 ****  ****    0 ROOT 
@<TRIPOS>NORMAL
@<TRIPOS>FF_PBC
FORCE_FIELD_SETUP_FEATURE Force Field Setup information
v1.0  0 0.000000 0.000000 0.000000 0.000000 0.000000 0.000000 NONE 0 0 0 0 1 0 0 0 0 0 0 0 0
