@<TRIPOS>MOLECULE
MOL005003
   47    50     1     1     0
SMALL
GASTEIGER


@<TRIPOS>ATOM
      1 C          -1.849073    0.467527    2.480409 C.ar      1 <1>         0.078509 
      2 C          -1.800295   -0.896754    2.584475 C.ar      1 <1>        -0.031161 
      3 C          -1.232237   -1.717327    1.491674 C.ar      1 <1>        -0.051168 
      4 C          -0.754110   -1.123118    0.384794 C.ar      1 <1>         0.012680 
      5 C          -0.811288    0.354184    0.252037 C.ar      1 <1>         0.087757 
      6 C          -1.344841    1.128175    1.242436 C.ar      1 <1>         0.016322 
      7 C          -0.144352   -1.969570   -0.734280 C.3       1 <1>         0.101501 
      8 C           0.346120   -1.133128   -1.949323 C.3       1 <1>         0.041402 
      9 C           0.802586    0.273791   -1.502628 C.3       1 <1>         0.063824 
     10 O          -0.303727    0.962403   -0.900518 O.3       1 <1>        -0.343277 
     11 O          -2.351251    1.242772    3.530116 O.3       1 <1>        -0.359468 
     12 C          -1.383053    2.658974    1.039098 C.3       1 <1>        -0.004344 
     13 C          -2.388877    3.343056    1.989508 C.2       1 <1>        -0.080815 
     14 C          -3.026972    4.328274    2.671292 C.2       1 <1>        -0.079306 
     15 C          -4.168148    3.846902    3.541020 C.3       1 <1>        -0.044040 
     16 C          -2.822312    5.855008    2.742292 C.3       1 <1>        -0.044040 
     17 O           1.009488   -2.689709   -0.245140 O.3       1 <1>        -0.335751 
     18 C           1.829528   -2.771119   -1.363381 C.ar      1 <1>         0.083036 
     19 C           1.549602   -1.971004   -2.340404 C.ar      1 <1>        -0.009134 
     20 C           2.971069   -3.707652   -1.448340 C.ar      1 <1>        -0.001356 
     21 C           3.733528   -3.724391   -2.574158 C.ar      1 <1>         0.078275 
     22 C           3.396906   -2.801744   -3.696372 C.ar      1 <1>        -0.031262 
     23 C           2.342116   -1.953420   -3.591681 C.ar      1 <1>        -0.053252 
     24 O           4.813649   -4.615616   -2.637152 O.3       1 <1>        -0.347829 
     25 C           5.702224   -4.643217   -3.764951 C.3       1 <1>         0.043027 
     26 H          -2.167968   -1.398776    3.473479 H         1 <1>         0.064340 
     27 H          -1.196770   -2.798561    1.591103 H         1 <1>         0.062270 
     28 H          -0.880873   -2.713101   -1.083838 H         1 <1>         0.065909 
     29 H          -0.408128   -1.067337   -2.751230 H         1 <1>         0.040099 
     30 H           1.634736    0.210350   -0.781575 H         1 <1>         0.057187 
     31 H           1.144769    0.847330   -2.377811 H         1 <1>         0.057187 
     32 H          -2.724872    0.756330    4.256666 H         1 <1>         0.217326 
     33 H          -1.690631    2.791693   -0.021536 H         1 <1>         0.035721 
     34 H          -0.294986    2.893148    1.144078 H         1 <1>         0.035721 
     35 H          -1.853066    4.197369    1.591776 H         1 <1>         0.057473 
     36 H          -5.076253    4.421344    3.306519 H         1 <1>         0.027427 
     37 H          -4.400915    2.781221    3.400425 H         1 <1>         0.027427 
     38 H          -3.910974    4.005374    4.598207 H         1 <1>         0.027427 
     39 H          -3.260637    6.275978    3.658623 H         1 <1>         0.027427 
     40 H          -1.759278    6.144131    2.738942 H         1 <1>         0.027427 
     41 H          -3.319537    6.325354    1.881066 H         1 <1>         0.027427 
     42 H           3.193128   -4.369526   -0.620288 H         1 <1>         0.066926 
     43 H           3.983644   -2.793532   -4.608105 H         1 <1>         0.064338 
     44 H           2.080012   -1.276868   -4.398613 H         1 <1>         0.062198 
     45 H           6.471145   -5.406465   -3.569066 H         1 <1>         0.052870 
     46 H           6.199985   -3.669512   -3.894845 H         1 <1>         0.052870 
     47 H           5.162874   -4.921538   -4.683397 H         1 <1>         0.052870 
@<TRIPOS>BOND
     1    1    2 2    
     2    1    6 1    
     3    1   11 1    
     4    2    3 1    
     5    2   26 1    
     6    3    4 2    
     7    3   27 1    
     8    4    5 1    
     9    4    7 1    
    10    5    6 2    
    11    5   10 1    
    12    6   12 1    
    13    7    8 1    
    14    7   17 1    
    15    7   28 1    
    16    8    9 1    
    17    8   19 1    
    18    8   29 1    
    19    9   10 1    
    20    9   30 1    
    21    9   31 1    
    22   11   32 1    
    23   12   13 1    
    24   12   33 1    
    25   12   34 1    
    26   13   14 2    
    27   13   35 1    
    28   14   15 1    
    29   14   16 1    
    30   15   36 1    
    31   15   37 1    
    32   15   38 1    
    33   16   39 1    
    34   16   40 1    
    35   16   41 1    
    36   17   18 1    
    37   18   19 2    
    38   18   20 1    
    39   19   23 1    
    40   20   21 2    
    41   20   42 1    
    42   21   22 1    
    43   21   24 1    
    44   22   23 2    
    45   22   43 1    
    46   23   44 1    
    47   24   25 1    
    48   25   45 1    
    49   25   46 1    
    50   25   47 1    
@<TRIPOS>SUBSTRUCTURE
     1 ****        1 TEMP              0 ****  ****    0 ROOT 
@<TRIPOS>NORMAL
@<TRIPOS>FF_PBC
FORCE_FIELD_SETUP_FEATURE Force Field Setup information
v1.0  0 0.000000 0.000000 0.000000 0.000000 0.000000 0.000000 NONE 0 0 0 0 1 0 0 0 0 0 0 0 0
