@<TRIPOS>MOLECULE
MOL001923
   41    43     1     1     0
SMALL
GASTEIGER


@<TRIPOS>ATOM
      1 O           1.221749    2.206971   -0.355978 O.3       1 <1>        -0.311185 
      2 O           5.471799   -0.109997   -0.340771 O.3       1 <1>        -0.381257 
      3 O           3.781693   -2.153969   -0.755497 O.2       1 <1>        -0.294351 
      4 O          -1.569927   -0.211947   -0.884627 O.3       1 <1>        -0.310639 
      5 O           0.025218    2.149407   -2.255732 O.2       1 <1>        -0.264561 
      6 O          -2.875281   -1.680914   -1.955315 O.2       1 <1>        -0.259226 
      7 C           1.173962   -0.058812    0.176735 C.3       1 <1>         0.006702 
      8 C           1.965141    1.250736    0.415107 C.3       1 <1>         0.075066 
      9 C           0.800837    0.073511   -1.319388 C.3       1 <1>         0.074182 
     10 C           3.417644    1.202371   -0.139831 C.3       1 <1>         0.009917 
     11 C           1.964108   -1.343013    0.536831 C.3       1 <1>         0.014699 
     12 C           4.194389   -0.059338    0.324776 C.3       1 <1>         0.123137 
     13 C           3.357697   -1.272427   -0.025554 C.2       1 <1>         0.164761 
     14 C           0.642492    1.568373   -1.379232 C.2       1 <1>         0.268132 
     15 C          -0.492430   -0.679758   -1.719307 C.3       1 <1>         0.069558 
     16 C           4.527820   -0.012512    1.839623 C.3       1 <1>        -0.029028 
     17 C          -2.750918   -0.805564   -1.112476 C.2       1 <1>         0.293829 
     18 C          -3.948862   -0.373677   -0.294887 C.ar      1 <1>         0.046475 
     19 C          -5.187696   -1.006945   -0.444545 C.ar      1 <1>        -0.048875 
     20 C          -3.807858    0.736921    0.680206 C.ar      1 <1>        -0.048875 
     21 C          -6.351893   -0.576401    0.365862 C.ar      1 <1>        -0.061020 
     22 C          -4.909210    1.147997    1.449380 C.ar      1 <1>        -0.061020 
     23 C          -6.217475    0.471547    1.288127 C.ar      1 <1>        -0.061719 
     24 H           0.252840   -0.018431    0.784627 H         1 <1>         0.033821 
     25 H           1.972250    1.545432    1.477662 H         1 <1>         0.060608 
     26 H           1.628079   -0.230725   -1.980105 H         1 <1>         0.042847 
     27 H           3.393646    1.207634   -1.239801 H         1 <1>         0.032237 
     28 H           3.959427    2.109664    0.170529 H         1 <1>         0.032237 
     29 H           1.438281   -2.225935    0.141492 H         1 <1>         0.034626 
     30 H           2.024695   -1.458796    1.629177 H         1 <1>         0.034626 
     31 H          -0.333362   -1.763163   -1.591575 H         1 <1>         0.057378 
     32 H          -0.713527   -0.473558   -2.780445 H         1 <1>         0.057378 
     33 H           5.051989   -0.938545    2.121583 H         1 <1>         0.026147 
     34 H           5.195112    0.838481    2.045457 H         1 <1>         0.026147 
     35 H           3.636736    0.089469    2.473282 H         1 <1>         0.026147 
     36 H           5.397340   -0.235859   -1.281745 H         1 <1>         0.210726 
     37 H          -5.305755   -1.819427   -1.154149 H         1 <1>         0.062527 
     38 H          -2.851231    1.235674    0.800844 H         1 <1>         0.062527 
     39 H          -7.308274   -1.074864    0.243580 H         1 <1>         0.061778 
     40 H          -4.804584    1.960545    2.161486 H         1 <1>         0.061778 
     41 H          -7.067764    0.788242    1.883596 H         1 <1>         0.061759 
@<TRIPOS>BOND
     1    8    1 1    
     2   14    1 1    
     3   12    2 1    
     4    2   36 1    
     5   13    3 2    
     6   15    4 1    
     7    4   17 1    
     8   14    5 2    
     9   17    6 2    
    10    7    8 1    
    11    7    9 1    
    12   11    7 1    
    13    7   24 1    
    14    8   10 1    
    15    8   25 1    
    16    9   14 1    
    17    9   15 1    
    18    9   26 1    
    19   10   12 1    
    20   10   27 1    
    21   10   28 1    
    22   11   13 1    
    23   11   29 1    
    24   11   30 1    
    25   12   13 1    
    26   12   16 1    
    27   15   31 1    
    28   15   32 1    
    29   16   33 1    
    30   16   34 1    
    31   16   35 1    
    32   17   18 1    
    33   18   19 2    
    34   18   20 1    
    35   19   21 1    
    36   19   37 1    
    37   20   22 2    
    38   20   38 1    
    39   21   23 2    
    40   21   39 1    
    41   22   23 1    
    42   22   40 1    
    43   23   41 1    
@<TRIPOS>SUBSTRUCTURE
     1 ****        1 TEMP              0 ****  ****    0 ROOT 
@<TRIPOS>NORMAL
@<TRIPOS>FF_PBC
FORCE_FIELD_SETUP_FEATURE Force Field Setup information
v1.0  0 0.000000 0.000000 0.000000 0.000000 0.000000 0.000000 NONE 0 0 0 0 1 0 0 0 0 0 0 0 0
