@<TRIPOS>MOLECULE
MOL000872
   32    31     1     1     0
SMALL
GASTEIGER


@<TRIPOS>ATOM
      1 C           3.059868    0.634055    1.549954 C.3       1 <1>        -0.062665 
      2 C           2.957588   -0.311064    0.320535 C.3       1 <1>        -0.046721 
      3 C           1.622063   -1.118291    0.292990 C.3       1 <1>        -0.050700 
      4 C           0.330978   -0.260310    0.162103 C.3       1 <1>        -0.052582 
      5 C          -0.939689   -1.153550    0.129878 C.3       1 <1>        -0.050459 
      6 C          -2.290822   -0.370627    0.168788 C.3       1 <1>        -0.044128 
      7 C          -2.464226    0.637463   -1.013770 C.3       1 <1>        -0.053312 
      8 C          -2.048299    2.093445   -0.659852 C.3       1 <1>        -0.065034 
      9 C          -3.458389   -1.401208    0.170561 C.3       1 <1>        -0.062423 
     10 C           3.209621    0.480398   -0.993193 C.3       1 <1>        -0.062665 
     11 H           4.073470    1.059894    1.615259 H         1 <1>         0.023233 
     12 H           2.347530    1.468285    1.472826 H         1 <1>         0.023233 
     13 H           2.857685    0.080950    2.480214 H         1 <1>         0.023233 
     14 H           3.770466   -1.055311    0.412987 H         1 <1>         0.029548 
     15 H           1.558893   -1.712122    1.219907 H         1 <1>         0.026777 
     16 H           1.657846   -1.826134   -0.551912 H         1 <1>         0.026777 
     17 H           0.381965    0.313981   -0.773655 H         1 <1>         0.026545 
     18 H           0.249553    0.432055    1.013641 H         1 <1>         0.026545 
     19 H          -0.906039   -1.822431    1.005856 H         1 <1>         0.026785 
     20 H          -0.908675   -1.783882   -0.773991 H         1 <1>         0.026785 
     21 H          -2.351158    0.179900    1.123668 H         1 <1>         0.029804 
     22 H          -1.907201    0.283489   -1.896027 H         1 <1>         0.026521 
     23 H          -3.525689    0.696727   -1.307167 H         1 <1>         0.026521 
     24 H          -2.183035    2.743869   -1.538891 H         1 <1>         0.022986 
     25 H          -2.682431    2.480518    0.153395 H         1 <1>         0.022986 
     26 H          -1.000985    2.168427   -0.340157 H         1 <1>         0.022986 
     27 H          -4.428091   -0.892673    0.290472 H         1 <1>         0.023242 
     28 H          -3.351332   -2.116927    1.000667 H         1 <1>         0.023242 
     29 H          -3.472431   -1.962987   -0.776264 H         1 <1>         0.023242 
     30 H           3.103159   -0.179670   -1.867973 H         1 <1>         0.023233 
     31 H           4.230822    0.893074   -0.994636 H         1 <1>         0.023233 
     32 H           2.507186    1.320353   -1.096113 H         1 <1>         0.023233 
@<TRIPOS>BOND
     1    1    2 1    
     2    1   11 1    
     3    1   12 1    
     4    1   13 1    
     5    2    3 1    
     6    2   10 1    
     7    2   14 1    
     8    3    4 1    
     9    3   15 1    
    10    3   16 1    
    11    4    5 1    
    12    4   17 1    
    13    4   18 1    
    14    5    6 1    
    15    5   19 1    
    16    5   20 1    
    17    6    7 1    
    18    6    9 1    
    19    6   21 1    
    20    7    8 1    
    21    7   22 1    
    22    7   23 1    
    23    8   24 1    
    24    8   25 1    
    25    8   26 1    
    26    9   27 1    
    27    9   28 1    
    28    9   29 1    
    29   10   30 1    
    30   10   31 1    
    31   10   32 1    
@<TRIPOS>SUBSTRUCTURE
     1 ****        1 TEMP              0 ****  ****    0 ROOT 
@<TRIPOS>NORMAL
@<TRIPOS>FF_PBC
FORCE_FIELD_SETUP_FEATURE Force Field Setup information
v1.0  0 0.000000 0.000000 0.000000 0.000000 0.000000 0.000000 NONE 0 0 0 0 1 0 0 0 0 0 0 0 0
