@<TRIPOS>MOLECULE
MOL004660
   82    87     1     1     0
SMALL
GASTEIGER


@<TRIPOS>ATOM
      1 O          -1.117231    3.503691    5.072868 O.3       1 <1>        -0.391162 
      2 C          -0.082558   -1.543817   -0.819789 C.3       1 <1>         0.096991 
      3 O          -1.421478   -1.675552   -1.340673 O.3       1 <1>        -0.367842 
      4 C           0.201641   -4.132096   -1.118620 C.3       1 <1>        -0.041426 
      5 C          -0.070111   -4.960323   -3.494238 C.3       1 <1>        -0.047195 
      6 C          -0.071971   -0.740299    1.589020 C.2       1 <1>        -0.081074 
      7 C          -0.171230   -1.725791    0.683743 C.2       1 <1>        -0.055410 
      8 O          -0.465787    6.218325    1.110741 O.3       1 <1>        -0.394374 
      9 C          -1.962508    1.315554    2.752758 C.3       1 <1>        -0.058736 
     10 C           2.085733   -0.191422   -0.769560 C.3       1 <1>        -0.056020 
     11 C           0.016277   -6.620386   -1.585234 C.3       1 <1>        -0.059801 
     12 C           2.131620   -5.425857   -2.242322 C.3       1 <1>        -0.059801 
     13 C          -0.078335    3.998672    4.204592 C.3       1 <1>         0.062974 
     14 C          -0.640281    4.394998    2.796235 C.3       1 <1>         0.020282 
     15 C          -0.535880    3.205650    1.742356 C.3       1 <1>        -0.025216 
     16 C          -0.507982    1.728661    2.320758 C.3       1 <1>        -0.021745 
     17 C           0.092833    0.725047    1.245868 C.3       1 <1>        -0.011151 
     18 C          -0.222877    0.966567   -0.267958 C.3       1 <1>        -0.016907 
     19 C           0.550574   -0.135844   -1.130193 C.3       1 <1>         0.009124 
     20 C          -1.402744   -2.095131   -2.717205 C.3       1 <1>         0.057154 
     21 C           0.086308   -2.396674   -3.016204 C.3       1 <1>         0.025848 
     22 C           0.617249   -2.705190   -1.595854 C.3       1 <1>         0.002843 
     23 C           0.584029   -5.267276   -2.116256 C.3       1 <1>        -0.034485 
     24 C           0.313350   -3.556269   -4.033826 C.3       1 <1>        -0.042066 
     25 C           1.039698    2.945613    4.064665 C.3       1 <1>        -0.025737 
     26 C           0.407843    1.608443    3.607766 C.3       1 <1>        -0.044446 
     27 C           0.541174    3.339559    0.614521 C.3       1 <1>        -0.048517 
     28 C           0.238933    2.427220   -0.621066 C.3       1 <1>        -0.046183 
     29 C           0.477195    0.147517   -2.671141 C.3       1 <1>        -0.017380 
     30 C           0.767732   -1.101373   -3.556255 C.3       1 <1>         0.063916 
     31 C           0.111990    5.687134    2.320723 C.3       1 <1>         0.052200 
     32 C          -2.125868    4.859067    2.989353 C.3       1 <1>        -0.054830 
     33 C          -1.781594    0.858236   -0.460896 C.3       1 <1>        -0.058408 
     34 O           0.290515   -0.859480   -4.894401 O.3       1 <1>        -0.391131 
     35 H          -0.816418    3.272429    5.946543 H         1 <1>         0.209801 
     36 H           0.700177   -4.359409   -0.163097 H         1 <1>         0.027428 
     37 H          -0.884806   -4.163946   -0.944396 H         1 <1>         0.027428 
     38 H           0.238362   -5.723062   -4.228344 H         1 <1>         0.027062 
     39 H          -1.164319   -5.033159   -3.404212 H         1 <1>         0.027062 
     40 H          -0.104754   -1.023716    2.642601 H         1 <1>         0.057297 
     41 H          -0.339021   -2.722264    1.087080 H         1 <1>         0.059762 
     42 H          -0.033797    7.006171    0.793003 H         1 <1>         0.209420 
     43 H          -2.041457    0.243229    2.973125 H         1 <1>         0.023534 
     44 H          -2.265599    1.831889    3.671013 H         1 <1>         0.023534 
     45 H          -2.736262    1.548199    2.014570 H         1 <1>         0.023534 
     46 H           2.526365    0.799396   -0.602460 H         1 <1>         0.023625 
     47 H           2.274638   -0.791119    0.133428 H         1 <1>         0.023625 
     48 H           2.702869   -0.632235   -1.562004 H         1 <1>         0.023625 
     49 H           0.250170   -7.439885   -2.282274 H         1 <1>         0.023499 
     50 H           0.451727   -6.868023   -0.604891 H         1 <1>         0.023499 
     51 H          -1.077584   -6.576416   -1.468716 H         1 <1>         0.023499 
     52 H           2.632723   -4.524401   -2.616247 H         1 <1>         0.023499 
     53 H           2.570406   -5.666144   -1.261842 H         1 <1>         0.023499 
     54 H           2.373314   -6.248230   -2.932938 H         1 <1>         0.023499 
     55 H           0.340714    4.883719    4.716639 H         1 <1>         0.059936 
     56 H          -1.444524    3.338265    1.144365 H         1 <1>         0.031300 
     57 H           1.174682    0.875144    1.313805 H         1 <1>         0.035379 
     58 H          -1.842451   -1.349225   -3.395495 H         1 <1>         0.056652 
     59 H          -2.041727   -2.985829   -2.767460 H         1 <1>         0.056652 
     60 H           1.710954   -2.669698   -1.540556 H         1 <1>         0.033899 
     61 H          -0.278585   -3.353933   -4.941540 H         1 <1>         0.027239 
     62 H           1.370465   -3.574951   -4.338451 H         1 <1>         0.027239 
     63 H           1.809300    3.292214    3.359775 H         1 <1>         0.029039 
     64 H           1.534151    2.800888    5.041040 H         1 <1>         0.029039 
     65 H           1.253135    0.908415    3.510794 H         1 <1>         0.027158 
     66 H          -0.162498    1.207381    4.461102 H         1 <1>         0.027158 
     67 H           1.540782    3.128940    1.021851 H         1 <1>         0.026847 
     68 H           0.595298    4.347535    0.181716 H         1 <1>         0.026847 
     69 H          -0.532406    2.904639   -1.248587 H         1 <1>         0.027097 
     70 H           1.148418    2.458276   -1.234377 H         1 <1>         0.027097 
     71 H           1.200284    0.924083   -2.964380 H         1 <1>         0.029668 
     72 H          -0.497666    0.536851   -2.977282 H         1 <1>         0.029668 
     73 H           1.853337   -1.290250   -3.619420 H         1 <1>         0.059965 
     74 H           1.187250    5.478345    2.196009 H         1 <1>         0.056334 
     75 H           0.021931    6.484687    3.078995 H         1 <1>         0.056334 
     76 H          -2.191010    5.635729    3.767361 H         1 <1>         0.023667 
     77 H          -2.788216    4.038199    3.288675 H         1 <1>         0.023667 
     78 H          -2.541330    5.281058    2.061474 H         1 <1>         0.023667 
     79 H          -2.093526    0.680521   -1.494158 H         1 <1>         0.023543 
     80 H          -2.209148    0.048931    0.147860 H         1 <1>         0.023543 
     81 H          -2.313183    1.774871   -0.191790 H         1 <1>         0.023543 
     82 H           0.694710   -0.104417   -5.311112 H         1 <1>         0.209802 
@<TRIPOS>BOND
     1   13    1 1    
     2    1   35 1    
     3    2    3 1    
     4    7    2 1    
     5    2   19 1    
     6    2   22 1    
     7    3   20 1    
     8   22    4 1    
     9    4   23 1    
    10    4   36 1    
    11    4   37 1    
    12   23    5 1    
    13    5   24 1    
    14    5   38 1    
    15    5   39 1    
    16    6    7 2    
    17   17    6 1    
    18    6   40 1    
    19    7   41 1    
    20   31    8 1    
    21    8   42 1    
    22   16    9 1    
    23    9   43 1    
    24    9   44 1    
    25    9   45 1    
    26   19   10 1    
    27   10   46 1    
    28   10   47 1    
    29   10   48 1    
    30   23   11 1    
    31   11   49 1    
    32   11   50 1    
    33   11   51 1    
    34   23   12 1    
    35   12   52 1    
    36   12   53 1    
    37   12   54 1    
    38   14   13 1    
    39   13   25 1    
    40   13   55 1    
    41   15   14 1    
    42   14   31 1    
    43   14   32 1    
    44   16   15 1    
    45   15   27 1    
    46   15   56 1    
    47   16   17 1    
    48   16   26 1    
    49   17   18 1    
    50   17   57 1    
    51   18   19 1    
    52   18   28 1    
    53   18   33 1    
    54   19   29 1    
    55   20   21 1    
    56   20   58 1    
    57   20   59 1    
    58   21   22 1    
    59   21   24 1    
    60   21   30 1    
    61   22   60 1    
    62   24   61 1    
    63   24   62 1    
    64   25   26 1    
    65   25   63 1    
    66   25   64 1    
    67   26   65 1    
    68   26   66 1    
    69   27   28 1    
    70   27   67 1    
    71   27   68 1    
    72   28   69 1    
    73   28   70 1    
    74   29   30 1    
    75   29   71 1    
    76   29   72 1    
    77   30   34 1    
    78   30   73 1    
    79   31   74 1    
    80   31   75 1    
    81   32   76 1    
    82   32   77 1    
    83   32   78 1    
    84   33   79 1    
    85   33   80 1    
    86   33   81 1    
    87   34   82 1    
@<TRIPOS>SUBSTRUCTURE
     1 ****        1 TEMP              0 ****  ****    0 ROOT 
@<TRIPOS>NORMAL
@<TRIPOS>FF_PBC
FORCE_FIELD_SETUP_FEATURE Force Field Setup information
v1.0  0 0.000000 0.000000 0.000000 0.000000 0.000000 0.000000 NONE 0 0 0 0 1 0 0 0 0 0 0 0 0
