@<TRIPOS>MOLECULE
MOL004061
   38    40     1     1     0
SMALL
GASTEIGER


@<TRIPOS>ATOM
      1 O           3.481800   -0.446555   -0.373506 O.3       1 <1>        -0.365029 
      2 O          -0.464464    2.811256   -1.011072 O.2       1 <1>        -0.297105 
      3 C          -1.003974   -0.085889   -0.704842 C.3       1 <1>        -0.026245 
      4 C          -2.357730   -0.203356    0.053913 C.3       1 <1>        -0.030768 
      5 C          -0.491916    0.884644    0.387571 C.3       1 <1>         0.021303 
      6 C          -1.955562    1.049587    0.876313 C.3       1 <1>        -0.037786 
      7 C           2.202982   -0.946311   -0.078727 C.3       1 <1>         0.093225 
      8 C          -0.183824   -1.376624   -0.983316 C.3       1 <1>        -0.046403 
      9 C           2.778812    0.436111    0.467211 C.3       1 <1>         0.088500 
     10 C           1.299514   -1.068631   -1.337738 C.3       1 <1>        -0.021260 
     11 C           0.112062    2.160427   -0.154646 C.2       1 <1>         0.136796 
     12 C           2.613248    1.805219   -0.234846 C.3       1 <1>        -0.017188 
     13 C          -3.612789   -0.016893   -0.841852 C.3       1 <1>        -0.059520 
     14 C          -2.501964   -1.440567    0.984795 C.3       1 <1>        -0.059520 
     15 C           1.445009    2.621381    0.375855 C.3       1 <1>         0.008542 
     16 C           2.284720   -2.143935    0.901569 C.3       1 <1>        -0.033358 
     17 H          -1.142530    0.462953   -1.652613 H         1 <1>         0.031266 
     18 H           0.115293    0.367854    1.147221 H         1 <1>         0.038030 
     19 H          -2.089040    0.975574    1.967564 H         1 <1>         0.027728 
     20 H          -2.427825    1.969164    0.494162 H         1 <1>         0.027728 
     21 H          -0.669741   -1.874739   -1.839241 H         1 <1>         0.026919 
     22 H          -0.206435   -2.086292   -0.148288 H         1 <1>         0.026919 
     23 H           3.148570    0.420829    1.504508 H         1 <1>         0.062488 
     24 H           1.710976   -1.918291   -1.906322 H         1 <1>         0.029375 
     25 H           1.354369   -0.186305   -1.989848 H         1 <1>         0.029375 
     26 H           2.495202    1.722501   -1.325120 H         1 <1>         0.029507 
     27 H           3.556330    2.345879   -0.050724 H         1 <1>         0.029507 
     28 H          -3.725002   -0.890964   -1.500929 H         1 <1>         0.023508 
     29 H          -4.511490    0.072898   -0.213010 H         1 <1>         0.023508 
     30 H          -3.537773    0.885798   -1.467232 H         1 <1>         0.023508 
     31 H          -3.407292   -1.332237    1.601088 H         1 <1>         0.023508 
     32 H          -2.602461   -2.357232    0.384396 H         1 <1>         0.023508 
     33 H          -1.643518   -1.546601    1.665688 H         1 <1>         0.023508 
     34 H           1.567534    3.681127    0.096443 H         1 <1>         0.034244 
     35 H           1.460365    2.563715    1.475608 H         1 <1>         0.034244 
     36 H           3.229054   -2.133565    1.467256 H         1 <1>         0.025813 
     37 H           1.451985   -2.092890    1.618044 H         1 <1>         0.025813 
     38 H           2.227504   -3.090640    0.343965 H         1 <1>         0.025813 
@<TRIPOS>BOND
     1    7    1 1    
     2    9    1 1    
     3   11    2 2    
     4    3    4 1    
     5    3    5 1    
     6    8    3 1    
     7    3   17 1    
     8    4    6 1    
     9    4   13 1    
    10    4   14 1    
    11    5    6 1    
    12    5   11 1    
    13    5   18 1    
    14    6   19 1    
    15    6   20 1    
    16    7    9 1    
    17   10    7 1    
    18    7   16 1    
    19    8   10 1    
    20    8   21 1    
    21    8   22 1    
    22    9   12 1    
    23    9   23 1    
    24   10   24 1    
    25   10   25 1    
    26   11   15 1    
    27   12   15 1    
    28   12   26 1    
    29   12   27 1    
    30   13   28 1    
    31   13   29 1    
    32   13   30 1    
    33   14   31 1    
    34   14   32 1    
    35   14   33 1    
    36   15   34 1    
    37   15   35 1    
    38   16   36 1    
    39   16   37 1    
    40   16   38 1    
@<TRIPOS>SUBSTRUCTURE
     1 ****        3 TEMP              0 ****  ****    0 ROOT 
@<TRIPOS>NORMAL
@<TRIPOS>FF_PBC
FORCE_FIELD_SETUP_FEATURE Force Field Setup information
v1.0  0 0.000000 0.000000 0.000000 0.000000 0.000000 0.000000 NONE 0 0 0 0 1 0 0 0 0 0 0 0 0
