@<TRIPOS>MOLECULE
MOL013440
   76    78     1     1     0
SMALL
GASTEIGER


@<TRIPOS>ATOM
      1 O           1.232407   -4.872486    1.570571 O.3       1 <1>        -0.309981 
      2 C           0.666856   -5.432317    0.370950 C.3       1 <1>         0.193752 
      3 C           0.276726   -6.902695    0.658219 C.3       1 <1>         0.134511 
      4 O           1.460511   -7.679786    0.931355 O.3       1 <1>        -0.384091 
      5 C          -0.461602   -7.498902   -0.566929 C.3       1 <1>         0.114074 
      6 O          -0.912276   -8.827160   -0.240034 O.3       1 <1>        -0.386401 
      7 C          -1.658500   -6.605684   -0.971754 C.3       1 <1>         0.111896 
      8 O          -2.196847   -7.138845   -2.198516 O.3       1 <1>        -0.386488 
      9 C          -1.177681   -5.141586   -1.159586 C.3       1 <1>         0.113017 
     10 O          -0.499493   -4.657802    0.020721 O.3       1 <1>        -0.340166 
     11 C          -2.393427   -4.217321   -1.434445 C.3       1 <1>         0.073015 
     12 O          -3.165761   -4.729445   -2.540458 O.3       1 <1>        -0.392366 
     13 C           1.445816   -3.489811    1.641673 C.ar      1 <1>         0.109318 
     14 C           1.144786   -2.765590    2.904152 C.ar      1 <1>         0.106113 
     15 C           1.274448   -1.361400    2.972785 C.ar      1 <1>        -0.023435 
     16 C           1.754055   -0.591970    1.798885 C.ar      1 <1>        -0.013993 
     17 C           2.108675   -1.290347    0.623422 C.ar      1 <1>        -0.053439 
     18 C           1.942135   -2.758968    0.537450 C.ar      1 <1>        -0.028686 
     19 O           0.738122   -3.469942    4.038845 O.3       1 <1>        -0.345330 
     20 C           1.822828   -4.145844    4.701842 C.3       1 <1>         0.043136 
     21 C           1.865011    0.941244    1.849292 C.3       1 <1>         0.108969 
     22 C           0.863573    1.572166    0.841570 C.3       1 <1>         0.118232 
     23 C          -0.572712    1.035264    1.098589 C.3       1 <1>         0.073656 
     24 O           0.899685    3.006470    0.974309 O.3       1 <1>        -0.331163 
     25 C           0.286941    3.924756    0.098991 C.ar      1 <1>         0.136441 
     26 C           0.191087    5.338996    0.540660 C.ar      1 <1>         0.108786 
     27 C          -0.351049    6.321767   -0.329458 C.ar      1 <1>        -0.021836 
     28 C          -0.809309    5.955521   -1.690916 C.ar      1 <1>        -0.020213 
     29 C          -0.777326    4.612169   -2.089239 C.ar      1 <1>        -0.021836 
     30 C          -0.239666    3.552485   -1.198376 C.ar      1 <1>         0.108786 
     31 O          -0.231678    2.216180   -1.622763 O.3       1 <1>        -0.345235 
     32 C          -1.285732    1.707033   -2.459799 C.3       1 <1>         0.043137 
     33 O           0.619733    5.675854    1.831274 O.3       1 <1>        -0.345235 
     34 C           1.292396    6.924103    2.071178 C.3       1 <1>         0.043137 
     35 C          -1.305931    6.999953   -2.670874 C.2       1 <1>        -0.056223 
     36 C          -0.843922    8.257448   -2.681296 C.2       1 <1>        -0.058387 
     37 C          -1.310734    9.310105   -3.656263 C.3       1 <1>         0.062691 
     38 O          -0.143157    9.855107   -4.296850 O.3       1 <1>        -0.390992 
     39 O          -0.902480    1.151601    2.496823 O.3       1 <1>        -0.392340 
     40 O           3.212039    1.317961    1.500922 O.3       1 <1>        -0.384504 
     41 H           1.419908   -5.436111   -0.432236 H         1 <1>         0.094161 
     42 H          -0.398050   -6.905500    1.531260 H         1 <1>         0.067108 
     43 H           1.251886   -8.593143    1.106476 H         1 <1>         0.210111 
     44 H           0.249863   -7.547980   -1.409206 H         1 <1>         0.064758 
     45 H          -1.380260   -9.230714   -0.966095 H         1 <1>         0.210005 
     46 H          -2.413572   -6.647923   -0.168076 H         1 <1>         0.064673 
     47 H          -2.909686   -6.602515   -2.540591 H         1 <1>         0.210004 
     48 H          -0.508796   -5.098074   -2.035902 H         1 <1>         0.064668 
     49 H          -3.018360   -4.177113   -0.526493 H         1 <1>         0.058370 
     50 H          -2.028431   -3.199054   -1.647783 H         1 <1>         0.058370 
     51 H          -3.926857   -4.190053   -2.741916 H         1 <1>         0.209508 
     52 H           1.027644   -0.852581    3.898607 H         1 <1>         0.064767 
     53 H           2.496651   -0.751003   -0.235627 H         1 <1>         0.062192 
     54 H           2.200882   -3.254092   -0.389761 H         1 <1>         0.064422 
     55 H           1.424103   -4.671111    5.582602 H         1 <1>         0.052871 
     56 H           2.296871   -4.888479    4.039793 H         1 <1>         0.052871 
     57 H           2.584054   -3.422358    5.038286 H         1 <1>         0.052871 
     58 H           1.623296    1.327651    2.853735 H         1 <1>         0.067050 
     59 H           1.245811    1.295884   -0.148319 H         1 <1>         0.065359 
     60 H          -1.301239    1.609656    0.504797 H         1 <1>         0.058395 
     61 H          -0.632196   -0.020701    0.786362 H         1 <1>         0.058395 
     62 H          -0.449823    7.345545   -0.001756 H         1 <1>         0.065003 
     63 H          -1.133716    4.356366   -3.079369 H         1 <1>         0.065003 
     64 H          -2.273881    1.964135   -2.046938 H         1 <1>         0.052871 
     65 H          -1.207554    2.070598   -3.495621 H         1 <1>         0.052871 
     66 H          -1.192186    0.610836   -2.478262 H         1 <1>         0.052871 
     67 H           1.682858    6.900297    3.099183 H         1 <1>         0.052871 
     68 H           0.613883    7.786677    1.996170 H         1 <1>         0.052871 
     69 H           2.138854    7.051107    1.377516 H         1 <1>         0.052871 
     70 H          -2.054180    6.692426   -3.400850 H         1 <1>         0.062106 
     71 H          -0.076586    8.576959   -1.975512 H         1 <1>         0.059478 
     72 H          -1.993733    8.889044   -4.412059 H         1 <1>         0.060128 
     73 H          -1.845043   10.095091   -3.094315 H         1 <1>         0.060128 
     74 H          -0.348038   10.538791   -4.928524 H         1 <1>         0.209823 
     75 H          -1.782537    0.850923    2.702783 H         1 <1>         0.209508 
     76 H           3.859777    0.979037    2.111382 H         1 <1>         0.210345 
@<TRIPOS>BOND
     1    1    2 1    
     2    1   13 1    
     3    2    3 1    
     4    2   10 1    
     5    2   41 1    
     6    3    4 1    
     7    3    5 1    
     8    3   42 1    
     9    4   43 1    
    10    5    6 1    
    11    5    7 1    
    12    5   44 1    
    13    6   45 1    
    14    7    8 1    
    15    7    9 1    
    16    7   46 1    
    17    8   47 1    
    18    9   10 1    
    19    9   11 1    
    20    9   48 1    
    21   11   12 1    
    22   11   49 1    
    23   11   50 1    
    24   12   51 1    
    25   13   14 1    
    26   13   18 2    
    27   14   15 2    
    28   14   19 1    
    29   15   16 1    
    30   15   52 1    
    31   16   17 2    
    32   16   21 1    
    33   17   18 1    
    34   17   53 1    
    35   18   54 1    
    36   19   20 1    
    37   20   55 1    
    38   20   56 1    
    39   20   57 1    
    40   21   22 1    
    41   21   40 1    
    42   21   58 1    
    43   22   23 1    
    44   22   24 1    
    45   22   59 1    
    46   23   39 1    
    47   23   60 1    
    48   23   61 1    
    49   24   25 1    
    50   25   26 1    
    51   25   30 2    
    52   26   27 2    
    53   26   33 1    
    54   27   28 1    
    55   27   62 1    
    56   28   29 2    
    57   28   35 1    
    58   29   30 1    
    59   29   63 1    
    60   30   31 1    
    61   31   32 1    
    62   32   64 1    
    63   32   65 1    
    64   32   66 1    
    65   33   34 1    
    66   34   67 1    
    67   34   68 1    
    68   34   69 1    
    69   35   36 2    
    70   35   70 1    
    71   36   37 1    
    72   36   71 1    
    73   37   38 1    
    74   37   72 1    
    75   37   73 1    
    76   38   74 1    
    77   39   75 1    
    78   40   76 1    
@<TRIPOS>SUBSTRUCTURE
     1 ****        1 TEMP              0 ****  ****    0 ROOT 
@<TRIPOS>NORMAL
@<TRIPOS>FF_PBC
FORCE_FIELD_SETUP_FEATURE Force Field Setup information
v1.0  0 0.000000 0.000000 0.000000 0.000000 0.000000 0.000000 NONE 0 0 0 0 1 0 0 0 0 0 0 0 0
