@<TRIPOS>MOLECULE
MOL004932
  120   126     1     1     0
SMALL
GASTEIGER


@<TRIPOS>ATOM
      1 C           0.326902   -5.632169   -5.004806 C.3       1 <1>         0.053721 
      2 C           0.272892   -7.000766   -4.226413 C.3       1 <1>        -0.038057 
      3 C           1.356634   -7.370941   -3.146571 C.3       1 <1>        -0.046118 
      4 C           2.764255   -6.728736   -3.369278 C.3       1 <1>        -0.025442 
      5 C           2.677659   -5.283784   -3.948739 C.3       1 <1>        -0.012608 
      6 C           1.811349   -5.248938   -5.250130 C.3       1 <1>        -0.031522 
      7 C           3.581319   -6.585630   -2.052247 C.3       1 <1>        -0.046277 
      8 C           2.960510   -5.639830   -0.976892 C.3       1 <1>        -0.042869 
      9 C           2.144006   -4.375756   -1.480007 C.3       1 <1>        -0.004332 
     10 C           2.460902   -4.130177   -2.967970 C.2       1 <1>        -0.056185 
     11 C           2.538920   -3.043676   -0.672722 C.3       1 <1>        -0.012656 
     12 C           1.864035   -1.754579   -1.306726 C.3       1 <1>         0.033332 
     13 C           2.351351   -1.652812   -2.725893 C.2       1 <1>         0.160199 
     14 C           2.593661   -2.886336   -3.472624 C.2       1 <1>        -0.018839 
     15 C           2.082809   -3.176355    0.816684 C.3       1 <1>        -0.045876 
     16 C           2.133906   -1.843018    1.596600 C.3       1 <1>        -0.048587 
     17 C           1.195795   -0.781077    0.930542 C.3       1 <1>        -0.027436 
     18 C           1.752491   -0.394843   -0.486792 C.3       1 <1>        -0.018250 
     19 C           0.731782    0.391410    1.875836 C.3       1 <1>        -0.005219 
     20 C          -0.234035    1.394658    1.143993 C.3       1 <1>         0.067175 
     21 C           0.270974    1.786570   -0.274262 C.3       1 <1>        -0.025459 
     22 C           0.660940    0.539005   -1.126762 C.3       1 <1>        -0.044320 
     23 O          -0.458402    2.497924    2.073835 O.3       1 <1>        -0.344868 
     24 C          -1.028753    3.725960    1.565860 C.3       1 <1>         0.189107 
     25 O           0.081795    4.578655    1.213988 O.3       1 <1>        -0.332678 
     26 C          -2.022394    4.374152    2.585486 C.3       1 <1>         0.140651 
     27 O          -2.792252    5.478696    2.021720 O.3       1 <1>        -0.337745 
     28 C           0.824748    5.124367    2.339525 C.3       1 <1>         0.174377 
     29 C          -0.101056    5.808760    3.369249 C.3       1 <1>         0.119040 
     30 C          -1.213602    4.824625    3.826645 C.3       1 <1>         0.114864 
     31 C          -3.932553    5.918311    2.813794 C.3       1 <1>         0.189056 
     32 O          -5.116506    5.582586    2.056640 O.3       1 <1>        -0.332684 
     33 O          -7.593221    7.808120    3.788786 O.3       1 <1>        -0.386033 
     34 O          -0.728194    3.635269    4.476067 O.3       1 <1>        -0.386378 
     35 C          -3.900225    7.455377    3.058885 C.3       1 <1>         0.134152 
     36 O          -5.152082    9.335066    3.936425 O.3       1 <1>        -0.386388 
     37 C          -5.192432    7.903351    3.788603 C.3       1 <1>         0.114497 
     38 C          -6.440946    7.465289    2.993242 C.3       1 <1>         0.119030 
     39 C          -6.355998    5.940699    2.720719 C.3       1 <1>         0.174377 
     40 C          -7.557748    5.531486    1.902201 C.2       1 <1>         0.291467 
     41 O          -0.626415    6.968765    2.705519 O.3       1 <1>        -0.386033 
     42 O          -2.789959    7.867561    3.888041 O.3       1 <1>        -0.384104 
     43 C          -0.067567   -0.167998    3.106399 C.3       1 <1>        -0.057181 
     44 C           1.955645    1.152802    2.452287 C.3       1 <1>        -0.057181 
     45 C           4.100579   -2.848505   -0.710053 C.3       1 <1>        -0.058099 
     46 C           1.916309    4.333387    3.028129 C.2       1 <1>         0.291467 
     47 C           3.106266    0.405214   -0.492388 C.3       1 <1>        -0.058618 
     48 C           0.606690   -4.705006   -1.250727 C.3       1 <1>        -0.055302 
     49 O           2.527970   -0.592786   -3.293315 O.2       1 <1>        -0.292347 
     50 C           3.575180   -7.686967   -4.312878 C.3       1 <1>        -0.059016 
     51 C          -0.441433   -4.399822   -4.407370 C.3       1 <1>        -0.050480 
     52 O           2.955014    4.046258    2.452993 O.2       1 <1>        -0.262180 
     53 O           1.735495    4.031598    4.321752 O.3       1 <1>        -0.329249 
     54 C          -0.382715   -5.875554   -6.337794 C.2       1 <1>         0.265560 
     55 O          -8.278206    4.602881    2.236108 O.2       1 <1>        -0.262180 
     56 O          -7.798938    6.258307    0.807463 O.3       1 <1>        -0.329249 
     57 O          -1.492489   -5.427165   -6.590927 O.2       1 <1>        -0.264567 
     58 O           0.274287   -6.610760   -7.238626 O.3       1 <1>        -0.330857 
     59 H          -0.731382   -7.125861   -3.790956 H         1 <1>         0.027550 
     60 H           0.379853   -7.788050   -4.991628 H         1 <1>         0.027550 
     61 H           1.014731   -7.233060   -2.117232 H         1 <1>         0.027098 
     62 H           1.472690   -8.469011   -3.156981 H         1 <1>         0.027098 
     63 H           3.700571   -5.065877   -4.301473 H         1 <1>         0.035146 
     64 H           1.837222   -4.273320   -5.755318 H         1 <1>         0.028121 
     65 H           2.249808   -5.951375   -5.972111 H         1 <1>         0.028121 
     66 H           4.579123   -6.198869   -2.321654 H         1 <1>         0.027096 
     67 H           3.739941   -7.582896   -1.606627 H         1 <1>         0.027096 
     68 H           3.812855   -5.362288   -0.349398 H         1 <1>         0.027392 
     69 H           2.364689   -6.272049   -0.301375 H         1 <1>         0.027392 
     70 H           0.818816   -1.979638   -1.509932 H         1 <1>         0.039170 
     71 H           2.897583   -2.714313   -4.500854 H         1 <1>         0.065218 
     72 H           2.683466   -3.938128    1.338982 H         1 <1>         0.027107 
     73 H           1.039404   -3.495512    0.913091 H         1 <1>         0.027107 
     74 H           1.802390   -2.080067    2.617277 H         1 <1>         0.026846 
     75 H           3.181696   -1.528283    1.677444 H         1 <1>         0.026846 
     76 H           0.243007   -1.301135    0.735392 H         1 <1>         0.031221 
     77 H          -1.205338    0.890502    0.989471 H         1 <1>         0.060224 
     78 H           1.063461    2.536520   -0.181554 H         1 <1>         0.029047 
     79 H          -0.537919    2.278440   -0.838153 H         1 <1>         0.029047 
     80 H           0.994683    0.889389   -2.115496 H         1 <1>         0.027160 
     81 H          -0.278143   -0.018344   -1.289806 H         1 <1>         0.027160 
     82 H          -1.652858    3.561822    0.674818 H         1 <1>         0.093773 
     83 H          -2.718768    3.565551    2.869414 H         1 <1>         0.067477 
     84 H           1.411896    5.933455    1.877222 H         1 <1>         0.072940 
     85 H           0.473113    6.156219    4.246625 H         1 <1>         0.065129 
     86 H          -1.848609    5.353262    4.554240 H         1 <1>         0.064781 
     87 H          -3.998486    5.417339    3.792050 H         1 <1>         0.093767 
     88 H          -8.424283    7.635564    3.356769 H         1 <1>         0.210020 
     89 H          -0.129493    3.809221    5.195652 H         1 <1>         0.210005 
     90 H          -3.839261    7.951476    2.072333 H         1 <1>         0.067096 
     91 H          -5.928376    9.668244    4.378449 H         1 <1>         0.210005 
     92 H          -5.210249    7.435086    4.788425 H         1 <1>         0.064771 
     93 H          -6.441288    8.026490    2.042951 H         1 <1>         0.065129 
     94 H          -6.431920    5.408166    3.683508 H         1 <1>         0.072940 
     95 H          -1.237109    7.449690    3.250936 H         1 <1>         0.210020 
     96 H          -2.857073    8.801203    4.097494 H         1 <1>         0.210110 
     97 H          -0.585587    0.640080    3.645084 H         1 <1>         0.023587 
     98 H           0.584057   -0.650589    3.847301 H         1 <1>         0.023587 
     99 H          -0.836288   -0.890009    2.796225 H         1 <1>         0.023587 
    100 H           1.629069    1.754035    3.306672 H         1 <1>         0.023587 
    101 H           2.740329    0.481884    2.823490 H         1 <1>         0.023587 
    102 H           2.393808    1.822343    1.710583 H         1 <1>         0.023587 
    103 H           4.536931   -3.216549   -1.651027 H         1 <1>         0.023553 
    104 H           4.404798   -1.806443   -0.624979 H         1 <1>         0.023553 
    105 H           4.626335   -3.348466    0.115895 H         1 <1>         0.023553 
    106 H           3.677595    0.238048   -1.412374 H         1 <1>         0.023535 
    107 H           3.762088    0.173756    0.351641 H         1 <1>         0.023535 
    108 H           2.980460    1.489447   -0.479193 H         1 <1>         0.023535 
    109 H          -0.076655   -3.856325   -1.183222 H         1 <1>         0.023829 
    110 H           0.178541   -5.303742   -2.044357 H         1 <1>         0.023829 
    111 H           0.409443   -5.277667   -0.332389 H         1 <1>         0.023829 
    112 H           3.015946   -7.957623   -5.219614 H         1 <1>         0.023525 
    113 H           3.801501   -8.633153   -3.796698 H         1 <1>         0.023525 
    114 H           4.536952   -7.248516   -4.617683 H         1 <1>         0.023525 
    115 H           0.100359   -3.827443   -3.655362 H         1 <1>         0.023986 
    116 H          -1.416210   -4.704415   -3.995279 H         1 <1>         0.023986 
    117 H          -0.623328   -3.643250   -5.187633 H         1 <1>         0.023986 
    118 H           2.485210    3.581762    4.698958 H         1 <1>         0.220293 
    119 H          -8.575248    5.958888    0.346823 H         1 <1>         0.220293 
    120 H          -0.222367   -6.708824   -8.043861 H         1 <1>         0.220226 
@<TRIPOS>BOND
     1    1    2 1    
     2    6    1 1    
     3    1   51 1    
     4    1   54 1    
     5    3    2 1    
     6    2   59 1    
     7    2   60 1    
     8    4    3 1    
     9    3   61 1    
    10    3   62 1    
    11    5    4 1    
    12    7    4 1    
    13    4   50 1    
    14    5    6 1    
    15   10    5 1    
    16    5   63 1    
    17    6   64 1    
    18    6   65 1    
    19    8    7 1    
    20    7   66 1    
    21    7   67 1    
    22    9    8 1    
    23    8   68 1    
    24    8   69 1    
    25    9   10 1    
    26   11    9 1    
    27    9   48 1    
    28   14   10 2    
    29   12   11 1    
    30   15   11 1    
    31   11   45 1    
    32   12   13 1    
    33   18   12 1    
    34   12   70 1    
    35   13   14 1    
    36   13   49 2    
    37   14   71 1    
    38   16   15 1    
    39   15   72 1    
    40   15   73 1    
    41   17   16 1    
    42   16   74 1    
    43   16   75 1    
    44   17   18 1    
    45   19   17 1    
    46   17   76 1    
    47   22   18 1    
    48   18   47 1    
    49   20   19 1    
    50   19   43 1    
    51   19   44 1    
    52   20   21 1    
    53   23   20 1    
    54   20   77 1    
    55   21   22 1    
    56   21   78 1    
    57   21   79 1    
    58   22   80 1    
    59   22   81 1    
    60   24   23 1    
    61   24   25 1    
    62   26   24 1    
    63   24   82 1    
    64   25   28 1    
    65   27   26 1    
    66   26   30 1    
    67   26   83 1    
    68   31   27 1    
    69   29   28 1    
    70   28   46 1    
    71   28   84 1    
    72   30   29 1    
    73   29   41 1    
    74   29   85 1    
    75   30   34 1    
    76   30   86 1    
    77   31   32 1    
    78   35   31 1    
    79   31   87 1    
    80   32   39 1    
    81   38   33 1    
    82   33   88 1    
    83   34   89 1    
    84   37   35 1    
    85   35   42 1    
    86   35   90 1    
    87   37   36 1    
    88   36   91 1    
    89   37   38 1    
    90   37   92 1    
    91   38   39 1    
    92   38   93 1    
    93   39   40 1    
    94   39   94 1    
    95   40   55 2    
    96   40   56 1    
    97   41   95 1    
    98   42   96 1    
    99   43   97 1    
   100   43   98 1    
   101   43   99 1    
   102   44  100 1    
   103   44  101 1    
   104   44  102 1    
   105   45  103 1    
   106   45  104 1    
   107   45  105 1    
   108   46   52 2    
   109   46   53 1    
   110   47  106 1    
   111   47  107 1    
   112   47  108 1    
   113   48  109 1    
   114   48  110 1    
   115   48  111 1    
   116   50  112 1    
   117   50  113 1    
   118   50  114 1    
   119   51  115 1    
   120   51  116 1    
   121   51  117 1    
   122   53  118 1    
   123   54   57 2    
   124   54   58 1    
   125   56  119 1    
   126   58  120 1    
@<TRIPOS>SUBSTRUCTURE
     1 ****        1 TEMP              0 ****  ****    0 ROOT 
@<TRIPOS>NORMAL
@<TRIPOS>FF_PBC
FORCE_FIELD_SETUP_FEATURE Force Field Setup information
v1.0  0 0.000000 0.000000 0.000000 0.000000 0.000000 0.000000 NONE 0 0 0 0 1 0 0 0 0 0 0 0 0
