@<TRIPOS>MOLECULE
MOL006933
  114   120     1     1     0
SMALL
GASTEIGER


@<TRIPOS>ATOM
      1 C          -0.314333    1.082811   -1.717935 C.3       1 <1>         0.197745 
      2 C          -0.281722   -0.276694   -0.966131 C.3       1 <1>         0.148577 
      3 C          -1.743639   -0.750166   -0.723229 C.3       1 <1>         0.128903 
      4 C          -2.459659    0.365688    0.082752 C.3       1 <1>         0.125906 
      5 C          -2.413336    1.704825   -0.701632 C.3       1 <1>         0.114769 
      6 O          -1.046164    2.073501   -0.975239 O.3       1 <1>        -0.339971 
      7 C          -3.048466    2.826511    0.161061 C.3       1 <1>         0.086199 
      8 C           1.692343   -0.206642    0.325373 C.2       1 <1>         0.294463 
      9 C           2.427542   -0.141983    1.645423 C.ar      1 <1>         0.051532 
     10 C           1.717444   -0.186728    2.871481 C.ar      1 <1>        -0.016369 
     11 C           2.447180   -0.170263    4.160512 C.ar      1 <1>         0.105546 
     12 C           3.868867   -0.132615    4.163726 C.ar      1 <1>         0.133347 
     13 C           4.612749   -0.088023    2.880553 C.ar      1 <1>         0.119349 
     14 C           3.907538   -0.052043    1.656494 C.ar      1 <1>        -0.015483 
     15 O           2.343101   -0.272593   -0.705714 O.2       1 <1>        -0.259211 
     16 O           0.351869   -0.230618    0.333174 O.3       1 <1>        -0.300278 
     17 O           6.007643   -0.073766    2.905737 O.3       1 <1>        -0.271238 
     18 C           6.721245   -0.881536    2.108673 C.2       1 <1>         0.299009 
     19 C           6.145250   -1.969299    1.223254 C.ar      1 <1>         0.051876 
     20 C           5.015611   -2.754395    1.589407 C.ar      1 <1>        -0.016357 
     21 C           4.463923   -3.763711    0.655752 C.ar      1 <1>         0.105520 
     22 C           5.089018   -3.984944   -0.602256 C.ar      1 <1>         0.132457 
     23 C           6.294815   -3.205852   -0.976745 C.ar      1 <1>         0.105520 
     24 C           6.803006   -2.220857   -0.082999 C.ar      1 <1>        -0.016357 
     25 O           7.928973   -0.714305    2.087131 O.2       1 <1>        -0.258823 
     26 O           6.909034   -3.458111   -2.207686 O.3       1 <1>        -0.357199 
     27 O           4.560308   -4.935242   -1.480831 O.3       1 <1>        -0.355395 
     28 O           3.327726   -4.486014    1.024879 O.3       1 <1>        -0.357199 
     29 O           4.552872   -0.132486    5.381839 O.3       1 <1>        -0.355377 
     30 O           1.731996   -0.196264    5.361057 O.3       1 <1>        -0.357199 
     31 C           1.194778    2.504724   -2.805250 C.2       1 <1>         0.296291 
     32 C           0.673519    2.277757   -4.208400 C.ar      1 <1>         0.051575 
     33 C           0.165779    3.349699   -4.968191 C.ar      1 <1>        -0.016368 
     34 C          -0.352205    3.118067   -6.336648 C.ar      1 <1>         0.105520 
     35 C          -0.329340    1.806255   -6.892307 C.ar      1 <1>         0.132457 
     36 C           0.222280    0.676182   -6.102845 C.ar      1 <1>         0.105520 
     37 C           0.711348    0.911690   -4.789870 C.ar      1 <1>        -0.016368 
     38 O           1.834291    3.516363   -2.571920 O.2       1 <1>        -0.259141 
     39 O           1.020812    1.613614   -1.822599 O.3       1 <1>        -0.278289 
     40 O           0.250332   -0.602315   -6.668162 O.3       1 <1>        -0.357199 
     41 O          -0.826431    1.596217   -8.180961 O.3       1 <1>        -0.355395 
     42 O          -0.860973    4.193799   -7.066902 O.3       1 <1>        -0.357199 
     43 C          -1.326038   -3.094954   -0.480653 C.2       1 <1>         0.294389 
     44 C          -0.745382   -3.212069   -1.872534 C.ar      1 <1>         0.051505 
     45 C          -1.521904   -2.981582   -3.026401 C.ar      1 <1>        -0.016369 
     46 C          -0.887547   -2.977933   -4.363774 C.ar      1 <1>         0.105520 
     47 C           0.504218   -3.252210   -4.488651 C.ar      1 <1>         0.132457 
     48 C           1.305811   -3.582653   -3.283156 C.ar      1 <1>         0.105520 
     49 C           0.688672   -3.565483   -2.004422 C.ar      1 <1>        -0.016369 
     50 O          -1.305383   -4.091233    0.220870 O.2       1 <1>        -0.259212 
     51 O          -1.840042   -1.970808    0.050539 O.3       1 <1>        -0.302596 
     52 O           2.657652   -3.903690   -3.432491 O.3       1 <1>        -0.357199 
     53 O           1.106558   -3.199864   -5.748487 O.3       1 <1>        -0.355395 
     54 O          -1.666332   -2.685779   -5.484590 O.3       1 <1>        -0.357199 
     55 C          -4.095251   -0.889219    1.250344 C.2       1 <1>         0.294388 
     56 C          -3.172260   -1.173078    2.416665 C.ar      1 <1>         0.051505 
     57 C          -2.753063   -2.488703    2.686464 C.ar      1 <1>        -0.016369 
     58 C          -1.794038   -2.758826    3.781718 C.ar      1 <1>         0.105520 
     59 C          -1.301305   -1.683561    4.572577 C.ar      1 <1>         0.132457 
     60 C          -1.784237   -0.300499    4.330317 C.ar      1 <1>         0.105520 
     61 C          -2.710257   -0.059283    3.282132 C.ar      1 <1>        -0.016369 
     62 O          -5.135445   -1.520438    1.174386 O.2       1 <1>        -0.259212 
     63 O          -3.851367    0.033441    0.302671 O.3       1 <1>        -0.302711 
     64 O          -1.319856    0.739034    5.142886 O.3       1 <1>        -0.357199 
     65 O          -0.364313   -1.942685    5.573661 O.3       1 <1>        -0.355395 
     66 O          -1.373041   -4.069079    4.017099 O.3       1 <1>        -0.357199 
     67 C          -3.633571    5.102390    0.106352 C.2       1 <1>         0.294052 
     68 C          -4.112430    5.012777    1.539955 C.ar      1 <1>         0.051495 
     69 C          -3.196490    4.871680    2.607841 C.ar      1 <1>        -0.016369 
     70 C          -3.681835    4.725841    3.998947 C.ar      1 <1>         0.105520 
     71 C          -5.077435    4.769278    4.270324 C.ar      1 <1>         0.132457 
     72 C          -6.044613    4.958101    3.159320 C.ar      1 <1>         0.105520 
     73 C          -5.566461    5.075692    1.820843 C.ar      1 <1>        -0.016369 
     74 O          -3.787652    6.158545   -0.482620 O.2       1 <1>        -0.259223 
     75 O          -3.067126    4.078672   -0.556786 O.3       1 <1>        -0.308753 
     76 O          -7.411008    5.014490    3.451380 O.3       1 <1>        -0.357199 
     77 O          -5.525384    4.629194    5.586108 O.3       1 <1>        -0.355395 
     78 O          -2.758147    4.538328    5.029158 O.3       1 <1>        -0.357199 
     79 H          -0.813702    0.909181   -2.685852 H         1 <1>         0.094298 
     80 H           0.236698   -0.981714   -1.627925 H         1 <1>         0.068056 
     81 H          -2.301974   -0.844902   -1.665584 H         1 <1>         0.065725 
     82 H          -1.887144    0.547113    1.001627 H         1 <1>         0.065613 
     83 H          -2.990365    1.624077   -1.638309 H         1 <1>         0.064721 
     84 H          -4.076556    2.535958    0.436326 H         1 <1>         0.059272 
     85 H          -2.433093    2.904600    1.068492 H         1 <1>         0.059272 
     86 H           0.635147   -0.242516    2.878309 H         1 <1>         0.065181 
     87 H           4.448849    0.033391    0.720663 H         1 <1>         0.065206 
     88 H           4.537551   -2.632528    2.554085 H         1 <1>         0.065181 
     89 H           7.681513   -1.644788   -0.353477 H         1 <1>         0.065181 
     90 H           7.675834   -2.923834   -2.383756 H         1 <1>         0.217423 
     91 H           5.217839   -5.196055   -2.121300 H         1 <1>         0.217501 
     92 H           3.126042   -5.178426    0.402717 H         1 <1>         0.217423 
     93 H           5.495615   -0.082090    5.257540 H         1 <1>         0.217502 
     94 H           2.311480   -0.072925    6.108659 H         1 <1>         0.217423 
     95 H           0.145446    4.352589   -4.555396 H         1 <1>         0.065181 
     96 H           1.119605    0.091797   -4.207758 H         1 <1>         0.065181 
     97 H           0.902813   -1.181809   -6.285846 H         1 <1>         0.217423 
     98 H          -0.760217    0.679637   -8.430965 H         1 <1>         0.217501 
     99 H          -1.164900    3.924778   -7.928760 H         1 <1>         0.217423 
    100 H          -2.586633   -2.791045   -2.950311 H         1 <1>         0.065181 
    101 H           1.259824   -3.805400   -1.113631 H         1 <1>         0.065181 
    102 H           3.085379   -4.177838   -2.626961 H         1 <1>         0.217423 
    103 H           1.995164   -3.543352   -5.716561 H         1 <1>         0.217501 
    104 H          -1.153050   -2.662063   -6.286862 H         1 <1>         0.217423 
    105 H          -3.116157   -3.313234    2.082861 H         1 <1>         0.065181 
    106 H          -3.088864    0.942794    3.108117 H         1 <1>         0.065181 
    107 H          -1.686099    1.594916    4.947169 H         1 <1>         0.217423 
    108 H           0.097835   -1.144413    5.816954 H         1 <1>         0.217501 
    109 H          -0.737986   -4.114424    4.725464 H         1 <1>         0.217423 
    110 H          -2.128056    4.865376    2.420581 H         1 <1>         0.065181 
    111 H          -6.259068    5.212260    0.997293 H         1 <1>         0.065181 
    112 H          -7.968554    5.167270    2.696326 H         1 <1>         0.217423 
    113 H          -6.475267    4.678748    5.635017 H         1 <1>         0.217501 
    114 H          -3.182842    4.490456    5.880858 H         1 <1>         0.217423 
@<TRIPOS>BOND
     1    1    2 1    
     2    6    1 1    
     3    1   39 1    
     4    1   79 1    
     5    3    2 1    
     6    2   16 1    
     7    2   80 1    
     8    4    3 1    
     9    3   51 1    
    10    3   81 1    
    11    5    4 1    
    12    4   63 1    
    13    4   82 1    
    14    5    6 1    
    15    7    5 1    
    16    5   83 1    
    17   75    7 1    
    18    7   84 1    
    19    7   85 1    
    20    8    9 1    
    21    8   15 2    
    22   16    8 1    
    23    9   10 2    
    24    9   14 1    
    25   10   11 1    
    26   10   86 1    
    27   11   12 2    
    28   11   30 1    
    29   13   12 1    
    30   12   29 1    
    31   14   13 2    
    32   13   17 1    
    33   14   87 1    
    34   17   18 1    
    35   18   19 1    
    36   18   25 2    
    37   19   20 2    
    38   19   24 1    
    39   20   21 1    
    40   20   88 1    
    41   21   22 2    
    42   21   28 1    
    43   23   22 1    
    44   22   27 1    
    45   24   23 2    
    46   23   26 1    
    47   24   89 1    
    48   26   90 1    
    49   27   91 1    
    50   28   92 1    
    51   29   93 1    
    52   30   94 1    
    53   31   32 1    
    54   31   38 2    
    55   39   31 1    
    56   32   33 2    
    57   32   37 1    
    58   33   34 1    
    59   33   95 1    
    60   34   35 2    
    61   34   42 1    
    62   36   35 1    
    63   35   41 1    
    64   37   36 2    
    65   36   40 1    
    66   37   96 1    
    67   40   97 1    
    68   41   98 1    
    69   42   99 1    
    70   43   44 1    
    71   43   50 2    
    72   51   43 1    
    73   44   45 2    
    74   44   49 1    
    75   45   46 1    
    76   45  100 1    
    77   46   47 2    
    78   46   54 1    
    79   48   47 1    
    80   47   53 1    
    81   49   48 2    
    82   48   52 1    
    83   49  101 1    
    84   52  102 1    
    85   53  103 1    
    86   54  104 1    
    87   55   56 1    
    88   55   62 2    
    89   63   55 1    
    90   56   57 2    
    91   56   61 1    
    92   57   58 1    
    93   57  105 1    
    94   58   59 2    
    95   58   66 1    
    96   60   59 1    
    97   59   65 1    
    98   61   60 2    
    99   60   64 1    
   100   61  106 1    
   101   64  107 1    
   102   65  108 1    
   103   66  109 1    
   104   67   68 1    
   105   67   74 2    
   106   67   75 1    
   107   68   69 2    
   108   68   73 1    
   109   69   70 1    
   110   69  110 1    
   111   70   71 2    
   112   70   78 1    
   113   71   72 1    
   114   71   77 1    
   115   72   73 2    
   116   72   76 1    
   117   73  111 1    
   118   76  112 1    
   119   77  113 1    
   120   78  114 1    
@<TRIPOS>SUBSTRUCTURE
     1 ****       67 TEMP              0 ****  ****    0 ROOT 
@<TRIPOS>NORMAL
@<TRIPOS>FF_PBC
FORCE_FIELD_SETUP_FEATURE Force Field Setup information
v1.0  0 0.000000 0.000000 0.000000 0.000000 0.000000 0.000000 NONE 0 0 0 0 1 0 0 0 0 0 0 0 0
