@<TRIPOS>MOLECULE
MOL004969
   24    24     1     1     0
SMALL
GASTEIGER


@<TRIPOS>ATOM
      1 C           0.565100    1.379229    0.125531 C.ar      1 <1>        -0.047265 
      2 C           0.549574   -0.108592    0.038403 C.ar      1 <1>        -0.044459 
      3 C          -0.692824   -0.773691    0.026112 C.ar      1 <1>        -0.055412 
      4 C          -1.970851   -0.022530    0.076200 C.ar      1 <1>        -0.050173 
      5 C          -1.943631    1.374784    0.134964 C.ar      1 <1>        -0.058573 
      6 C          -0.646299    2.087234    0.161753 C.ar      1 <1>        -0.058332 
      7 C          -3.293560   -0.797270    0.061311 C.3       1 <1>        -0.039700 
      8 C           1.890465    2.155458    0.180582 C.3       1 <1>        -0.039451 
      9 C           1.888996   -0.868600   -0.038185 C.3       1 <1>        -0.030269 
     10 C           1.804512   -2.367650   -0.432933 C.3       1 <1>        -0.061257 
     11 H          -0.749912   -1.853187   -0.023607 H         1 <1>         0.062299 
     12 H          -2.866181    1.944762    0.163918 H         1 <1>         0.062028 
     13 H          -0.648662    3.169960    0.214149 H         1 <1>         0.062037 
     14 H          -4.165609   -0.125524    0.059557 H         1 <1>         0.027753 
     15 H          -3.333618   -1.432344   -0.836933 H         1 <1>         0.027753 
     16 H          -3.340523   -1.435737    0.956819 H         1 <1>         0.027753 
     17 H           1.737580    3.188822    0.526537 H         1 <1>         0.027762 
     18 H           2.338691    2.187744   -0.823665 H         1 <1>         0.027762 
     19 H           2.589679    1.671151    0.878326 H         1 <1>         0.027762 
     20 H           2.514017   -0.367470   -0.794833 H         1 <1>         0.031059 
     21 H           2.389954   -0.790149    0.940126 H         1 <1>         0.031059 
     22 H           2.819238   -2.771126   -0.585554 H         1 <1>         0.023288 
     23 H           1.323662   -2.958542    0.363290 H         1 <1>         0.023288 
     24 H           1.240301   -2.486632   -1.371869 H         1 <1>         0.023288 
@<TRIPOS>BOND
     1    1    2 1    
     2    1    6 2    
     3    1    8 1    
     4    2    3 2    
     5    2    9 1    
     6    3    4 1    
     7    3   11 1    
     8    4    5 2    
     9    4    7 1    
    10    5    6 1    
    11    5   12 1    
    12    6   13 1    
    13    7   14 1    
    14    7   15 1    
    15    7   16 1    
    16    8   17 1    
    17    8   18 1    
    18    8   19 1    
    19    9   10 1    
    20    9   20 1    
    21    9   21 1    
    22   10   22 1    
    23   10   23 1    
    24   10   24 1    
@<TRIPOS>SUBSTRUCTURE
     1 ****        1 TEMP              0 ****  ****    0 ROOT 
@<TRIPOS>NORMAL
@<TRIPOS>FF_PBC
FORCE_FIELD_SETUP_FEATURE Force Field Setup information
v1.0  0 0.000000 0.000000 0.000000 0.000000 0.000000 0.000000 NONE 0 0 0 0 1 0 0 0 0 0 0 0 0
