@<TRIPOS>MOLECULE
MOL001191
   39    40     1     1     0
SMALL
GASTEIGER


@<TRIPOS>ATOM
      1 C          -2.878147    2.175613   -0.332028 C.3       1 <1>        -0.033996 
      2 C          -3.050959    1.087486    0.699697 C.2       1 <1>        -0.084716 
      3 C          -2.158218    0.112104    0.933965 C.2       1 <1>        -0.072634 
      4 C          -0.861934    0.004077    0.141821 C.3       1 <1>        -0.011067 
      5 C          -0.427922    1.404659   -0.383978 C.3       1 <1>        -0.024713 
      6 C          -1.618755    1.975354   -1.212603 C.3       1 <1>        -0.043612 
      7 C           0.326222   -0.735385    0.828338 C.3       1 <1>        -0.024487 
      8 C           1.537724   -0.868059   -0.086303 C.2       1 <1>        -0.070215 
      9 C           1.980166    0.461258   -0.676745 C.3       1 <1>        -0.030977 
     10 C           0.793345    1.217256   -1.331772 C.3       1 <1>        -0.043361 
     11 C          -2.426181   -0.937682    1.994375 C.3       1 <1>        -0.043497 
     12 C          -0.083807    2.395029    0.775608 C.3       1 <1>        -0.058990 
     13 C           2.187286   -2.025927   -0.358777 C.2       1 <1>        -0.076440 
     14 C           1.858154   -3.398641    0.209566 C.3       1 <1>        -0.043796 
     15 C           3.373143   -2.059054   -1.307364 C.3       1 <1>        -0.043796 
     16 H          -3.772159    2.216223   -0.976084 H         1 <1>         0.030757 
     17 H          -2.813709    3.137021    0.201132 H         1 <1>         0.030757 
     18 H          -3.975453    1.132928    1.276859 H         1 <1>         0.057163 
     19 H          -1.127825   -0.631651   -0.719476 H         1 <1>         0.035385 
     20 H          -1.874467    1.268329   -2.019560 H         1 <1>         0.027364 
     21 H          -1.342003    2.930120   -1.690861 H         1 <1>         0.027364 
     22 H          -0.065524   -1.703600    1.139589 H         1 <1>         0.031597 
     23 H           0.630492   -0.206932    1.742269 H         1 <1>         0.031597 
     24 H           2.751057    0.393093   -1.456159 H         1 <1>         0.031024 
     25 H           2.431268    1.048869    0.135034 H         1 <1>         0.031024 
     26 H           0.485211    0.631748   -2.213269 H         1 <1>         0.027372 
     27 H           1.134691    2.202843   -1.688014 H         1 <1>         0.027372 
     28 H          -2.444399   -1.935227    1.529378 H         1 <1>         0.027445 
     29 H          -3.391547   -0.793727    2.502427 H         1 <1>         0.027445 
     30 H          -1.646638   -0.908870    2.770889 H         1 <1>         0.027445 
     31 H           0.815227    2.114108    1.335624 H         1 <1>         0.023525 
     32 H           0.087108    3.402106    0.366393 H         1 <1>         0.023525 
     33 H          -0.895919    2.462056    1.512519 H         1 <1>         0.023525 
     34 H           1.112106   -3.476464    1.004829 H         1 <1>         0.027435 
     35 H           1.528788   -4.044502   -0.619243 H         1 <1>         0.027435 
     36 H           2.778904   -3.824160    0.637501 H         1 <1>         0.027435 
     37 H           3.815785   -3.064249   -1.392902 H         1 <1>         0.027435 
     38 H           3.056819   -1.767293   -2.320281 H         1 <1>         0.027435 
     39 H           4.171970   -1.390855   -0.952494 H         1 <1>         0.027435 
@<TRIPOS>BOND
     1    1    2 1    
     2    1    6 1    
     3    1   16 1    
     4    1   17 1    
     5    2    3 2    
     6    2   18 1    
     7    3    4 1    
     8    3   11 1    
     9    4    5 1    
    10    4    7 1    
    11    4   19 1    
    12    5    6 1    
    13    5   10 1    
    14    5   12 1    
    15    6   20 1    
    16    6   21 1    
    17    7    8 1    
    18    7   22 1    
    19    7   23 1    
    20    8    9 1    
    21    8   13 2    
    22    9   10 1    
    23    9   24 1    
    24    9   25 1    
    25   10   26 1    
    26   10   27 1    
    27   11   28 1    
    28   11   29 1    
    29   11   30 1    
    30   12   31 1    
    31   12   32 1    
    32   12   33 1    
    33   13   14 1    
    34   13   15 1    
    35   14   34 1    
    36   14   35 1    
    37   14   36 1    
    38   15   37 1    
    39   15   38 1    
    40   15   39 1    
@<TRIPOS>SUBSTRUCTURE
     1 ****        1 TEMP              0 ****  ****    0 ROOT 
@<TRIPOS>NORMAL
@<TRIPOS>FF_PBC
FORCE_FIELD_SETUP_FEATURE Force Field Setup information
v1.0  0 0.000000 0.000000 0.000000 0.000000 0.000000 0.000000 NONE 0 0 0 0 1 0 0 0 0 0 0 0 0
