@<TRIPOS>MOLECULE
MOL002506
   50    51     1     1     0
SMALL
GASTEIGER


@<TRIPOS>ATOM
      1 C          -2.913118    1.054486    0.306450 C.3       1 <1>        -0.020607 
      2 C          -4.000774   -0.012793    0.542631 C.ar      1 <1>        -0.044352 
      3 C          -3.585019   -1.322907    0.876766 C.ar      1 <1>        -0.025965 
      4 O          -2.846181    4.511891   -1.074508 O.2       1 <1>        -0.292681 
      5 C          -2.421574    3.409972   -0.765910 C.2       1 <1>         0.156107 
      6 C          -3.431525    2.398212   -0.272595 C.3       1 <1>         0.013833 
      7 C          -0.103949    2.679463   -0.073717 C.2       1 <1>        -0.080413 
      8 C          -0.972971    3.196393   -0.951441 C.2       1 <1>        -0.023124 
      9 C           3.284882    0.766650   -0.574638 C.ar      1 <1>        -0.044471 
     10 C           1.777696    1.027611   -0.397523 C.3       1 <1>        -0.024155 
     11 C           1.370129    2.523614   -0.375637 C.3       1 <1>        -0.030373 
     12 C          -5.457051    0.270093    0.435279 C.ar      1 <1>        -0.055970 
     13 C          -6.396547   -0.752658    0.637273 C.ar      1 <1>        -0.029141 
     14 C          -5.953808   -2.123070    0.975891 C.ar      1 <1>         0.102451 
     15 C          -4.576560   -2.408165    1.102435 C.ar      1 <1>         0.105659 
     16 O          -4.193347   -3.716034    1.437458 O.3       1 <1>        -0.345341 
     17 C          -2.815517   -4.067483    1.639498 C.3       1 <1>         0.043136 
     18 O          -6.908871   -3.123389    1.170270 O.3       1 <1>        -0.357269 
     19 C           3.760184   -0.546501   -0.401885 C.ar      1 <1>        -0.025967 
     20 C           5.195160   -0.890037   -0.541363 C.ar      1 <1>         0.105659 
     21 C           6.130259    0.149700   -0.869618 C.ar      1 <1>         0.102451 
     22 C           5.623496    1.532245   -1.059401 C.ar      1 <1>        -0.029141 
     23 C           4.261710    1.831289   -0.917098 C.ar      1 <1>        -0.055972 
     24 O           7.495893   -0.117074   -1.011303 O.3       1 <1>        -0.357269 
     25 O           5.570623   -2.228072   -0.341028 O.3       1 <1>        -0.345341 
     26 C           6.935010   -2.670075   -0.409621 C.3       1 <1>         0.043136 
     27 H          -2.436219    1.231423    1.281996 H         1 <1>         0.031731 
     28 H          -2.168780    0.634494   -0.389311 H         1 <1>         0.031731 
     29 H          -2.524276   -1.521827    0.962634 H         1 <1>         0.064684 
     30 H          -4.052208    2.896798    0.489174 H         1 <1>         0.034806 
     31 H          -4.057659    2.181584   -1.152532 H         1 <1>         0.034806 
     32 H          -0.440573    2.364676    0.910887 H         1 <1>         0.057317 
     33 H          -0.607246    3.528017   -1.923495 H         1 <1>         0.064910 
     34 H           1.470007    0.565990    0.554527 H         1 <1>         0.031614 
     35 H           1.242836    0.519227   -1.215389 H         1 <1>         0.031614 
     36 H           1.619173    2.981837   -1.345729 H         1 <1>         0.031056 
     37 H           1.936042    3.048251    0.410360 H         1 <1>         0.031056 
     38 H          -5.824665    1.261604    0.202508 H         1 <1>         0.062110 
     39 H          -7.458672   -0.549931    0.550376 H         1 <1>         0.064412 
     40 H          -2.780164   -5.132269    1.914175 H         1 <1>         0.052871 
     41 H          -2.234078   -3.928330    0.714528 H         1 <1>         0.052871 
     42 H          -2.373467   -3.482706    2.461562 H         1 <1>         0.052871 
     43 H          -6.502162   -3.958333    1.382253 H         1 <1>         0.217422 
     44 H           3.065411   -1.342832   -0.156975 H         1 <1>         0.064684 
     45 H           6.313696    2.329964   -1.312926 H         1 <1>         0.064412 
     46 H           3.946642    2.856769   -1.064606 H         1 <1>         0.062110 
     47 H           8.023453    0.650145   -1.200170 H         1 <1>         0.217422 
     48 H           6.953160   -3.748613   -0.193183 H         1 <1>         0.052871 
     49 H           7.350833   -2.516700   -1.417152 H         1 <1>         0.052871 
     50 H           7.554339   -2.159154    0.343433 H         1 <1>         0.052871 
@<TRIPOS>BOND
     1    1    2 1    
     2    6    1 1    
     3    1   27 1    
     4    1   28 1    
     5    2    3 2    
     6    2   12 1    
     7    3   15 1    
     8    3   29 1    
     9    5    4 2    
    10    5    6 1    
    11    8    5 1    
    12    6   30 1    
    13    6   31 1    
    14    7    8 2    
    15   11    7 1    
    16    7   32 1    
    17    8   33 1    
    18   10    9 1    
    19    9   19 2    
    20    9   23 1    
    21   10   11 1    
    22   10   34 1    
    23   10   35 1    
    24   11   36 1    
    25   11   37 1    
    26   12   13 2    
    27   12   38 1    
    28   13   14 1    
    29   13   39 1    
    30   14   15 2    
    31   14   18 1    
    32   15   16 1    
    33   16   17 1    
    34   17   40 1    
    35   17   41 1    
    36   17   42 1    
    37   18   43 1    
    38   19   20 1    
    39   19   44 1    
    40   20   21 2    
    41   20   25 1    
    42   21   22 1    
    43   21   24 1    
    44   22   23 2    
    45   22   45 1    
    46   23   46 1    
    47   24   47 1    
    48   25   26 1    
    49   26   48 1    
    50   26   49 1    
    51   26   50 1    
@<TRIPOS>SUBSTRUCTURE
     1 ****        9 TEMP              0 ****  ****    0 ROOT 
@<TRIPOS>NORMAL
@<TRIPOS>FF_PBC
FORCE_FIELD_SETUP_FEATURE Force Field Setup information
v1.0  0 0.000000 0.000000 0.000000 0.000000 0.000000 0.000000 NONE 0 0 0 0 1 0 0 0 0 0 0 0 0
