@<TRIPOS>MOLECULE
MOL000382
   20    19     1     1     0
SMALL
GASTEIGER


@<TRIPOS>ATOM
      1 O          -2.788244   -0.027887   -1.410447 O.2       1 <1>        -0.298200 
      2 C          -1.745801    0.565182   -1.182675 C.2       1 <1>         0.151209 
      3 C          -1.249329    0.746635    0.230647 C.3       1 <1>         0.138133 
      4 O          -2.369784    0.957516    1.114674 O.3       1 <1>        -0.381901 
      5 C          -0.447886   -0.501779    0.688514 C.3       1 <1>         0.115526 
      6 O           0.074777   -0.230835    2.004434 O.3       1 <1>        -0.386155 
      7 C           0.699570   -0.942717   -0.268399 C.3       1 <1>         0.106814 
      8 O           1.295968   -2.107347    0.339822 O.3       1 <1>        -0.386858 
      9 C           1.768743    0.165762   -0.469213 C.3       1 <1>         0.072662 
     10 O           1.233933    1.233603   -1.274157 O.3       1 <1>        -0.392376 
     11 H          -1.179724    0.947221   -2.030863 H         1 <1>         0.105461 
     12 H          -0.604182    1.639028    0.277209 H         1 <1>         0.069683 
     13 H          -2.096922    1.047046    2.023442 H         1 <1>         0.210454 
     14 H          -1.169616   -1.335797    0.752207 H         1 <1>         0.065010 
     15 H           0.546143   -0.981423    2.355722 H         1 <1>         0.210018 
     16 H           0.279813   -1.220769   -1.251139 H         1 <1>         0.064301 
     17 H           1.977921   -2.513221   -0.187059 H         1 <1>         0.209989 
     18 H           2.638797   -0.267632   -0.991298 H         1 <1>         0.058361 
     19 H           2.101748    0.533947    0.515415 H         1 <1>         0.058361 
     20 H           1.861892    1.935115   -1.428116 H         1 <1>         0.209508 
@<TRIPOS>BOND
     1    1    2 2    
     2    2    3 1    
     3    2   11 1    
     4    3    4 1    
     5    3    5 1    
     6    3   12 1    
     7    4   13 1    
     8    5    6 1    
     9    5    7 1    
    10    5   14 1    
    11    6   15 1    
    12    7    8 1    
    13    7    9 1    
    14    7   16 1    
    15    8   17 1    
    16    9   10 1    
    17    9   18 1    
    18    9   19 1    
    19   10   20 1    
@<TRIPOS>SUBSTRUCTURE
     1 ****        1 TEMP              0 ****  ****    0 ROOT 
@<TRIPOS>NORMAL
@<TRIPOS>FF_PBC
FORCE_FIELD_SETUP_FEATURE Force Field Setup information
v1.0  0 0.000000 0.000000 0.000000 0.000000 0.000000 0.000000 NONE 0 0 0 0 1 0 0 0 0 0 0 0 0
