@<TRIPOS>MOLECULE
MOL001739
   48    47     1     1     0
SMALL
GASTEIGER


@<TRIPOS>ATOM
      1 O           0.921702    8.436453    0.184581 O.3       1 <1>        -0.331267 
      2 O           3.034216    8.102527   -0.319184 O.2       1 <1>        -0.265177 
      3 C          -0.850778    1.730427   -0.148446 C.3       1 <1>        -0.052779 
      4 C          -0.963322    3.273242   -0.016597 C.3       1 <1>        -0.053036 
      5 C          -2.212580    1.010536    0.060873 C.3       1 <1>        -0.049616 
      6 C           0.437643    3.933121   -0.142487 C.3       1 <1>        -0.052596 
      7 C          -2.012225   -0.526002   -0.036125 C.3       1 <1>        -0.034761 
      8 C           0.369617    5.480353   -0.015339 C.3       1 <1>        -0.044061 
      9 C           0.037920   -4.710659   -0.110184 C.3       1 <1>        -0.052788 
     10 C          -0.837943   -3.438087    0.069017 C.3       1 <1>        -0.049616 
     11 C           1.543930   -4.390118    0.110543 C.3       1 <1>        -0.053297 
     12 C          -2.336663   -3.695686   -0.259392 C.3       1 <1>        -0.034761 
     13 C          -3.261441   -1.325371    0.231688 C.2       1 <1>        -0.087932 
     14 C           2.422396   -5.667815    0.028811 C.3       1 <1>        -0.055911 
     15 C           1.795896    6.102132   -0.055966 C.3       1 <1>         0.033006 
     16 C          -3.379193   -2.659211    0.128102 C.2       1 <1>        -0.087932 
     17 C           3.927685   -5.326530    0.183584 C.3       1 <1>        -0.065276 
     18 C           1.945330    7.612613   -0.072211 C.2       1 <1>         0.259588 
     19 H          -0.457099    1.478506   -1.147062 H         1 <1>         0.026538 
     20 H          -0.133619    1.365527    0.605491 H         1 <1>         0.026538 
     21 H          -1.395674    3.522417    0.966503 H         1 <1>         0.026529 
     22 H          -1.634847    3.659616   -0.800897 H         1 <1>         0.026529 
     23 H          -2.614968    1.265906    1.055533 H         1 <1>         0.026822 
     24 H          -2.938551    1.339820   -0.701552 H         1 <1>         0.026822 
     25 H           1.092544    3.534809    0.650467 H         1 <1>         0.026540 
     26 H           0.876923    3.663308   -1.117200 H         1 <1>         0.026540 
     27 H          -1.652964   -0.760569   -1.050191 H         1 <1>         0.030732 
     28 H          -1.252343   -0.803616    0.708230 H         1 <1>         0.030732 
     29 H          -0.118070    5.731030    0.941204 H         1 <1>         0.027004 
     30 H          -0.237656    5.882549   -0.843207 H         1 <1>         0.027004 
     31 H          -0.284191   -5.479051    0.612462 H         1 <1>         0.026537 
     32 H          -0.102320   -5.111842   -1.127556 H         1 <1>         0.026537 
     33 H          -0.426516   -2.673486   -0.604248 H         1 <1>         0.026822 
     34 H          -0.746092   -3.100522    1.114106 H         1 <1>         0.026822 
     35 H           1.878156   -3.672849   -0.657028 H         1 <1>         0.026520 
     36 H           1.682470   -3.922065    1.099328 H         1 <1>         0.026520 
     37 H          -2.610877   -4.621086    0.273995 H         1 <1>         0.030732 
     38 H          -2.442431   -3.892169   -1.337527 H         1 <1>         0.030732 
     39 H          -4.147784   -0.762278    0.529831 H         1 <1>         0.056896 
     40 H           2.125869   -6.370600    0.825316 H         1 <1>         0.026265 
     41 H           2.264769   -6.164558   -0.942086 H         1 <1>         0.026265 
     42 H           2.369094    5.734081    0.808589 H         1 <1>         0.036600 
     43 H           2.297035    5.740022   -0.967682 H         1 <1>         0.036600 
     44 H          -4.372973   -3.063750    0.342651 H         1 <1>         0.056896 
     45 H           4.251320   -4.638345   -0.613238 H         1 <1>         0.022978 
     46 H           4.528169   -6.247355    0.114456 H         1 <1>         0.022978 
     47 H           4.120160   -4.851665    1.158695 H         1 <1>         0.022978 
     48 H           0.091746    8.024544    0.375620 H         1 <1>         0.220208 
@<TRIPOS>BOND
     1   18    1 1    
     2    1   48 1    
     3   18    2 2    
     4    4    3 1    
     5    3    5 1    
     6    3   19 1    
     7    3   20 1    
     8    6    4 1    
     9    4   21 1    
    10    4   22 1    
    11    5    7 1    
    12    5   23 1    
    13    5   24 1    
    14    8    6 1    
    15    6   25 1    
    16    6   26 1    
    17    7   13 1    
    18    7   27 1    
    19    7   28 1    
    20   15    8 1    
    21    8   29 1    
    22    8   30 1    
    23   10    9 1    
    24    9   11 1    
    25    9   31 1    
    26    9   32 1    
    27   12   10 1    
    28   10   33 1    
    29   10   34 1    
    30   11   14 1    
    31   11   35 1    
    32   11   36 1    
    33   16   12 1    
    34   12   37 1    
    35   12   38 1    
    36   13   16 2    
    37   13   39 1    
    38   14   17 1    
    39   14   40 1    
    40   14   41 1    
    41   15   18 1    
    42   15   42 1    
    43   15   43 1    
    44   16   44 1    
    45   17   45 1    
    46   17   46 1    
    47   17   47 1    
@<TRIPOS>SUBSTRUCTURE
     1 ****        3 TEMP              0 ****  ****    0 ROOT 
@<TRIPOS>NORMAL
@<TRIPOS>FF_PBC
FORCE_FIELD_SETUP_FEATURE Force Field Setup information
v1.0  0 0.000000 0.000000 0.000000 0.000000 0.000000 0.000000 NONE 0 0 0 0 1 0 0 0 0 0 0 0 0
