@<TRIPOS>MOLECULE
MOL000035
   39    40     1     1     0
SMALL
GASTEIGER


@<TRIPOS>ATOM
      1 C           2.024457    0.558476   -1.113515 C.2       1 <1>        -0.072990 
      2 C           3.248222    0.030617   -0.396998 C.3       1 <1>        -0.031697 
      3 C           3.209073   -1.495677   -0.068770 C.3       1 <1>        -0.048852 
      4 C           1.792188   -2.135718   -0.154078 C.3       1 <1>        -0.046792 
      5 C           0.675882   -1.161470    0.322373 C.3       1 <1>        -0.025519 
      6 C          -0.721718   -1.857373    0.238226 C.3       1 <1>        -0.046540 
      7 C          -1.898294   -0.879795    0.532448 C.3       1 <1>        -0.046000 
      8 C          -1.826507    0.401400   -0.346376 C.3       1 <1>        -0.019838 
      9 C          -0.415961    1.065226   -0.319783 C.3       1 <1>        -0.039498 
     10 C           0.664954    0.016490   -0.705526 C.3       1 <1>        -0.014216 
     11 C          -2.954218    1.355263    0.017823 C.2       1 <1>        -0.076591 
     12 C          -4.107299    1.369643   -0.667114 C.2       1 <1>        -0.099446 
     13 C          -2.732118    2.290576    1.188470 C.3       1 <1>        -0.043777 
     14 C           2.146457    1.463624   -2.096358 C.2       1 <1>        -0.099166 
     15 C           0.946012   -0.771190    1.815919 C.3       1 <1>        -0.059017 
     16 H           4.160224    0.227271   -0.984928 H         1 <1>         0.030999 
     17 H           3.353863    0.640294    0.512231 H         1 <1>         0.030999 
     18 H           3.863120   -2.050201   -0.764608 H         1 <1>         0.026847 
     19 H           3.628796   -1.649406    0.939666 H         1 <1>         0.026847 
     20 H           1.595456   -2.418788   -1.201994 H         1 <1>         0.027079 
     21 H           1.771776   -3.065939    0.437551 H         1 <1>         0.027079 
     22 H          -0.766916   -2.702141    0.944780 H         1 <1>         0.027087 
     23 H          -0.869662   -2.274746   -0.771574 H         1 <1>         0.027087 
     24 H          -2.850011   -1.397982    0.324391 H         1 <1>         0.027114 
     25 H          -1.924541   -0.611577    1.596818 H         1 <1>         0.027114 
     26 H          -1.985647    0.066902   -1.386463 H         1 <1>         0.034560 
     27 H          -0.165439    1.494619    0.658644 H         1 <1>         0.027684 
     28 H          -0.433938    1.899226   -1.037962 H         1 <1>         0.027684 
     29 H           0.334947   -0.405281   -1.670484 H         1 <1>         0.035098 
     30 H          -4.284803    0.698752   -1.506990 H         1 <1>         0.053440 
     31 H          -4.916133    2.053391   -0.411414 H         1 <1>         0.053440 
     32 H          -2.324290    1.748246    2.053608 H         1 <1>         0.027436 
     33 H          -2.027634    3.084111    0.899719 H         1 <1>         0.027436 
     34 H          -3.665983    2.774357    1.512212 H         1 <1>         0.027436 
     35 H           1.286052    1.838591   -2.647962 H         1 <1>         0.053449 
     36 H           3.116398    1.861718   -2.392722 H         1 <1>         0.053449 
     37 H           1.891302   -0.244257    1.968059 H         1 <1>         0.023525 
     38 H           0.986572   -1.686760    2.425289 H         1 <1>         0.023525 
     39 H           0.175358   -0.130388    2.257491 H         1 <1>         0.023525 
@<TRIPOS>BOND
     1    1    2 1    
     2    1   10 1    
     3    1   14 2    
     4    2    3 1    
     5    2   16 1    
     6    2   17 1    
     7    3    4 1    
     8    3   18 1    
     9    3   19 1    
    10    4    5 1    
    11    4   20 1    
    12    4   21 1    
    13    5    6 1    
    14    5   10 1    
    15    5   15 1    
    16    6    7 1    
    17    6   22 1    
    18    6   23 1    
    19    7    8 1    
    20    7   24 1    
    21    7   25 1    
    22    8    9 1    
    23    8   11 1    
    24    8   26 1    
    25    9   10 1    
    26    9   27 1    
    27    9   28 1    
    28   10   29 1    
    29   11   12 2    
    30   11   13 1    
    31   12   30 1    
    32   12   31 1    
    33   13   32 1    
    34   13   33 1    
    35   13   34 1    
    36   14   35 1    
    37   14   36 1    
    38   15   37 1    
    39   15   38 1    
    40   15   39 1    
@<TRIPOS>SUBSTRUCTURE
     1 ****        1 TEMP              0 ****  ****    0 ROOT 
@<TRIPOS>NORMAL
@<TRIPOS>FF_PBC
FORCE_FIELD_SETUP_FEATURE Force Field Setup information
v1.0  0 0.000000 0.000000 0.000000 0.000000 0.000000 0.000000 NONE 0 0 0 0 1 0 0 0 0 0 0 0 0
