@<TRIPOS>MOLECULE
MOL004715
   39    40     1     1     0
SMALL
GASTEIGER


@<TRIPOS>ATOM
      1 C           0.496253   -0.309503   -0.336409 C.3       1 <1>        -0.011009 
      2 C           1.271061    0.088683    0.982690 C.3       1 <1>        -0.028074 
      3 C          -0.886058    0.382390   -0.504600 C.3       1 <1>        -0.013117 
      4 C           1.500641    1.641983    1.094721 C.3       1 <1>        -0.047033 
      5 C          -1.595725   -0.144835   -1.779099 C.3       1 <1>        -0.042286 
      6 C          -0.775559    1.894160   -0.491757 C.2       1 <1>        -0.072943 
      7 C           0.359387    2.550015    1.653236 C.3       1 <1>        -0.048861 
      8 C           0.327161   -1.807172   -0.556920 C.2       1 <1>        -0.080862 
      9 C          -0.971682    2.555913    0.850948 C.3       1 <1>        -0.031697 
     10 C           2.705079   -0.550652    0.960249 C.3       1 <1>        -0.059259 
     11 C           0.551275   -0.453761    2.252671 C.3       1 <1>        -0.059259 
     12 C          -1.954544   -1.634825   -1.573455 C.3       1 <1>        -0.031439 
     13 C          -0.751633   -2.406076   -1.088929 C.2       1 <1>        -0.076213 
     14 C          -0.505742    2.625716   -1.582529 C.2       1 <1>        -0.099165 
     15 C          -0.844710   -3.909322   -1.247385 C.3       1 <1>        -0.043778 
     16 H           1.114051    0.031017   -1.182953 H         1 <1>         0.035396 
     17 H          -1.538570    0.059818    0.319816 H         1 <1>         0.035144 
     18 H           2.334208    1.838107    1.789982 H         1 <1>         0.027070 
     19 H           1.824122    2.022951    0.112383 H         1 <1>         0.027070 
     20 H          -2.514450    0.431897   -1.978794 H         1 <1>         0.027417 
     21 H          -0.934630   -0.068174   -2.657033 H         1 <1>         0.027417 
     22 H           0.756867    3.581275    1.642182 H         1 <1>         0.026847 
     23 H           0.159134    2.310582    2.711157 H         1 <1>         0.026847 
     24 H           1.137590   -2.475814   -0.286991 H         1 <1>         0.057467 
     25 H          -1.329376    3.591380    0.719889 H         1 <1>         0.030999 
     26 H          -1.765931    2.047338    1.420133 H         1 <1>         0.030999 
     27 H           3.315790   -0.214037    1.811976 H         1 <1>         0.023517 
     28 H           2.698313   -1.644671    1.037977 H         1 <1>         0.023517 
     29 H           3.236571   -0.271706    0.037399 H         1 <1>         0.023517 
     30 H          -0.453146   -0.030324    2.379112 H         1 <1>         0.023517 
     31 H           1.134783   -0.207588    3.153100 H         1 <1>         0.023517 
     32 H           0.448641   -1.548062    2.198685 H         1 <1>         0.023517 
     33 H          -2.759140   -1.743194   -0.828448 H         1 <1>         0.031008 
     34 H          -2.317447   -2.047153   -2.529318 H         1 <1>         0.031008 
     35 H          -0.429811    3.711001   -1.524092 H         1 <1>         0.053449 
     36 H          -0.341793    2.189961   -2.565112 H         1 <1>         0.053449 
     37 H          -0.002951   -4.450359   -0.789475 H         1 <1>         0.027436 
     38 H          -1.772610   -4.268161   -0.777039 H         1 <1>         0.027436 
     39 H          -0.871706   -4.161720   -2.318035 H         1 <1>         0.027436 
@<TRIPOS>BOND
     1    1    2 1    
     2    1    3 1    
     3    1    8 1    
     4    1   16 1    
     5    2    4 1    
     6    2   10 1    
     7    2   11 1    
     8    3    5 1    
     9    3    6 1    
    10    3   17 1    
    11    4    7 1    
    12    4   18 1    
    13    4   19 1    
    14    5   12 1    
    15    5   20 1    
    16    5   21 1    
    17    6    9 1    
    18    6   14 2    
    19    7    9 1    
    20    7   22 1    
    21    7   23 1    
    22    8   13 2    
    23    8   24 1    
    24    9   25 1    
    25    9   26 1    
    26   10   27 1    
    27   10   28 1    
    28   10   29 1    
    29   11   30 1    
    30   11   31 1    
    31   11   32 1    
    32   12   13 1    
    33   12   33 1    
    34   12   34 1    
    35   13   15 1    
    36   14   35 1    
    37   14   36 1    
    38   15   37 1    
    39   15   38 1    
    40   15   39 1    
@<TRIPOS>SUBSTRUCTURE
     1 ****        1 TEMP              0 ****  ****    0 ROOT 
@<TRIPOS>NORMAL
@<TRIPOS>FF_PBC
FORCE_FIELD_SETUP_FEATURE Force Field Setup information
v1.0  0 0.000000 0.000000 0.000000 0.000000 0.000000 0.000000 NONE 0 0 0 0 1 0 0 0 0 0 0 0 0
