@<TRIPOS>MOLECULE
MOL012966
   36    36     1     1     0
SMALL
GASTEIGER


@<TRIPOS>ATOM
      1 O          -3.928534    1.055892   -0.699710 O.3       1 <1>        -0.388042 
      2 O           1.929868   -0.213950   -1.252164 O.3       1 <1>        -0.379654 
      3 O           3.167880   -2.829091    1.834709 O.2       1 <1>        -0.292661 
      4 C           1.237745    0.133888    1.011357 C.3       1 <1>         0.008343 
      5 C           0.784694   -0.385167   -0.394837 C.3       1 <1>         0.110840 
      6 C           2.567070   -0.595460    1.375580 C.3       1 <1>         0.018235 
      7 C          -2.648614    1.348971   -1.290237 C.3       1 <1>         0.070647 
      8 C           0.560965   -1.886436   -0.365449 C.2       1 <1>        -0.033891 
      9 C          -0.337625    0.426026   -1.019798 C.2       1 <1>        -0.049771 
     10 C           1.502769    1.667201    0.973533 C.3       1 <1>        -0.056178 
     11 C           0.190828   -0.149849    2.134305 C.3       1 <1>        -0.056178 
     12 C          -1.609053    0.490260   -0.603245 C.2       1 <1>        -0.057086 
     13 C           2.407165   -2.084528    1.241128 C.2       1 <1>         0.156765 
     14 C           1.337699   -2.655469    0.408091 C.2       1 <1>        -0.017210 
     15 C          -2.312036    2.854515   -1.128089 C.3       1 <1>        -0.035321 
     16 C          -0.522744   -2.468700   -1.245372 C.3       1 <1>        -0.040377 
     17 H          -4.642223    1.547939   -1.092827 H         1 <1>         0.210194 
     18 H           1.813894   -0.547146   -2.136197 H         1 <1>         0.211064 
     19 H           2.876746   -0.359558    2.404688 H         1 <1>         0.035125 
     20 H           3.390202   -0.289079    0.714957 H         1 <1>         0.035125 
     21 H          -2.670201    1.095113   -2.362674 H         1 <1>         0.063466 
     22 H          -0.080041    1.018854   -1.897886 H         1 <1>         0.060147 
     23 H           1.908282    2.012683    1.937583 H         1 <1>         0.023618 
     24 H           0.571483    2.221045    0.775096 H         1 <1>         0.023618 
     25 H           2.227750    1.914504    0.183489 H         1 <1>         0.023618 
     26 H          -0.171349   -1.188849    2.118184 H         1 <1>         0.023618 
     27 H           0.640243    0.030204    3.121721 H         1 <1>         0.023618 
     28 H          -0.676903    0.519714    2.067763 H         1 <1>         0.023618 
     29 H          -1.946094   -0.082374    0.257263 H         1 <1>         0.059523 
     30 H           1.205297   -3.736582    0.440980 H         1 <1>         0.065274 
     31 H          -1.340443    3.095476   -1.587627 H         1 <1>         0.025756 
     32 H          -3.081878    3.474186   -1.617068 H         1 <1>         0.025756 
     33 H          -2.273021    3.109787   -0.057661 H         1 <1>         0.025756 
     34 H          -0.469309   -2.035222   -2.254898 H         1 <1>         0.027546 
     35 H          -0.424580   -3.560618   -1.345436 H         1 <1>         0.027546 
     36 H          -1.512216   -2.264337   -0.811720 H         1 <1>         0.027546 
@<TRIPOS>BOND
     1    7    1 1    
     2    1   17 1    
     3    5    2 1    
     4    2   18 1    
     5   13    3 2    
     6    5    4 1    
     7    4    6 1    
     8    4   10 1    
     9    4   11 1    
    10    5    8 1    
    11    9    5 1    
    12    6   13 1    
    13    6   19 1    
    14    6   20 1    
    15   12    7 1    
    16    7   15 1    
    17    7   21 1    
    18    8   14 2    
    19    8   16 1    
    20    9   12 2    
    21    9   22 1    
    22   10   23 1    
    23   10   24 1    
    24   10   25 1    
    25   11   26 1    
    26   11   27 1    
    27   11   28 1    
    28   12   29 1    
    29   13   14 1    
    30   14   30 1    
    31   15   31 1    
    32   15   32 1    
    33   15   33 1    
    34   16   34 1    
    35   16   35 1    
    36   16   36 1    
@<TRIPOS>SUBSTRUCTURE
     1 ****        2 TEMP              0 ****  ****    0 ROOT 
@<TRIPOS>NORMAL
@<TRIPOS>FF_PBC
FORCE_FIELD_SETUP_FEATURE Force Field Setup information
v1.0  0 0.000000 0.000000 0.000000 0.000000 0.000000 0.000000 NONE 0 0 0 0 1 0 0 0 0 0 0 0 0
