@<TRIPOS>MOLECULE
MOL001406
   48    47     1     1     0
SMALL
GASTEIGER


@<TRIPOS>ATOM
      1 C          -8.398299    2.891091   -2.457656 C.2       1 <1>         0.286943 
      2 C          -7.021544    3.221043   -2.011602 C.2       1 <1>         0.020794 
      3 C          -6.064286    2.277952   -2.030059 C.2       1 <1>        -0.053165 
      4 C          -4.653431    2.460148   -1.615506 C.2       1 <1>        -0.061082 
      5 C          -3.749574    1.471299   -1.660817 C.2       1 <1>        -0.058827 
      6 C          -2.327926    1.616114   -1.265869 C.2       1 <1>        -0.050445 
      7 C          -1.711451    0.578488   -0.676709 C.2       1 <1>        -0.058837 
      8 C          -0.310576    0.554115   -0.196949 C.2       1 <1>        -0.061502 
      9 C           0.297075   -0.565113    0.221564 C.2       1 <1>        -0.061502 
     10 C           1.697550   -0.588125    0.702735 C.2       1 <1>        -0.058837 
     11 C           2.321527   -1.631147    1.274153 C.2       1 <1>        -0.050445 
     12 C           3.740506   -1.480633    1.676139 C.2       1 <1>        -0.058827 
     13 C           4.654792   -2.458612    1.610166 C.2       1 <1>        -0.061082 
     14 C           6.062396   -2.271019    2.032792 C.2       1 <1>        -0.053165 
     15 C           7.026543   -3.206852    2.006673 C.2       1 <1>         0.020794 
     16 C           6.727388   -4.607613    1.516323 C.3       1 <1>        -0.034044 
     17 C           8.399069   -2.871632    2.461566 C.2       1 <1>         0.286943 
     18 C           1.603673   -2.939111    1.522477 C.3       1 <1>        -0.039709 
     19 C          -1.598808    2.912487   -1.541163 C.3       1 <1>        -0.039709 
     20 C          -6.710454    4.625082   -1.538421 C.3       1 <1>        -0.034044 
     21 O          -9.270020    3.746832   -2.440951 O.2       1 <1>        -0.259791 
     22 O          -8.689350    1.656194   -2.879148 O.3       1 <1>        -0.327733 
     23 O           9.277518   -3.720315    2.437752 O.2       1 <1>        -0.259791 
     24 O           8.678918   -1.639595    2.898711 O.3       1 <1>        -0.327733 
     25 H          -6.330562    1.279755   -2.379100 H         1 <1>         0.062202 
     26 H          -4.325283    3.430625   -1.248697 H         1 <1>         0.061777 
     27 H          -4.070882    0.486742   -2.003023 H         1 <1>         0.062020 
     28 H          -2.287832   -0.335209   -0.524603 H         1 <1>         0.062020 
     29 H           0.259539    1.481673   -0.172378 H         1 <1>         0.061766 
     30 H          -0.273158   -1.492544    0.196189 H         1 <1>         0.061766 
     31 H           2.267566    0.332304    0.568347 H         1 <1>         0.062020 
     32 H           4.050085   -0.500920    2.042314 H         1 <1>         0.062020 
     33 H           4.338157   -3.423684    1.219774 H         1 <1>         0.061777 
     34 H           6.319541   -1.275156    2.395091 H         1 <1>         0.062202 
     35 H           7.605823   -5.267525    1.564820 H         1 <1>         0.027936 
     36 H           6.394285   -4.572669    0.468018 H         1 <1>         0.027936 
     37 H           5.937581   -5.060050    2.134963 H         1 <1>         0.027936 
     38 H           2.170858   -3.592535    2.201328 H         1 <1>         0.027753 
     39 H           1.451016   -3.466585    0.568962 H         1 <1>         0.027753 
     40 H           0.629180   -2.759367    2.000368 H         1 <1>         0.027753 
     41 H          -2.157625    3.553317   -2.238705 H         1 <1>         0.027753 
     42 H          -0.622934    2.715073   -2.009239 H         1 <1>         0.027753 
     43 H          -1.447669    3.461487   -0.599662 H         1 <1>         0.027753 
     44 H          -7.586450    5.288581   -1.582446 H         1 <1>         0.027936 
     45 H          -6.364794    4.599081   -0.493926 H         1 <1>         0.027936 
     46 H          -5.926146    5.067318   -2.171240 H         1 <1>         0.027936 
     47 H          -9.599914    1.564004   -3.138450 H         1 <1>         0.220545 
     48 H           9.587729   -1.543263    3.162557 H         1 <1>         0.220545 
@<TRIPOS>BOND
     1    1    2 1    
     2    1   21 2    
     3    1   22 1    
     4    2    3 2    
     5    2   20 1    
     6    3    4 1    
     7    3   25 1    
     8    4    5 2    
     9    4   26 1    
    10    5    6 1    
    11    5   27 1    
    12    6    7 2    
    13    6   19 1    
    14    7    8 1    
    15    7   28 1    
    16    8    9 2    
    17    8   29 1    
    18    9   10 1    
    19    9   30 1    
    20   10   11 2    
    21   10   31 1    
    22   11   12 1    
    23   11   18 1    
    24   12   13 2    
    25   12   32 1    
    26   13   14 1    
    27   13   33 1    
    28   14   15 2    
    29   14   34 1    
    30   15   16 1    
    31   15   17 1    
    32   16   35 1    
    33   16   36 1    
    34   16   37 1    
    35   17   23 2    
    36   17   24 1    
    37   18   38 1    
    38   18   39 1    
    39   18   40 1    
    40   19   41 1    
    41   19   42 1    
    42   19   43 1    
    43   20   44 1    
    44   20   45 1    
    45   20   46 1    
    46   22   47 1    
    47   24   48 1    
@<TRIPOS>SUBSTRUCTURE
     1 ****        1 TEMP              0 ****  ****    0 ROOT 
@<TRIPOS>NORMAL
@<TRIPOS>FF_PBC
FORCE_FIELD_SETUP_FEATURE Force Field Setup information
v1.0  0 0.000000 0.000000 0.000000 0.000000 0.000000 0.000000 NONE 0 0 0 0 1 0 0 0 0 0 0 0 0
