@<TRIPOS>MOLECULE
MOL000431
   17    18     1     1     0
SMALL
GASTEIGER


@<TRIPOS>ATOM
      1 C           2.448872    0.899545    0.000096 C.2       1 <1>         0.291578 
      2 C           2.497711   -0.576578    0.000026 C.2       1 <1>         0.010952 
      3 C           1.392256   -1.326450   -0.000042 C.2       1 <1>        -0.046445 
      4 C           0.063574   -0.612181   -0.000041 C.ar      1 <1>         0.005763 
      5 C           0.080194    0.868973    0.000021 C.ar      1 <1>         0.093566 
      6 O           1.288716    1.570020    0.000082 O.3       1 <1>        -0.273794 
      7 C          -1.132344    1.575322    0.000020 C.ar      1 <1>        -0.030478 
      8 C          -2.423022    0.845309   -0.000035 C.ar      1 <1>        -0.059267 
      9 C          -2.436911   -0.558715   -0.000090 C.ar      1 <1>        -0.061044 
     10 C          -1.160206   -1.312027   -0.000096 C.ar      1 <1>        -0.052108 
     11 O           3.493110    1.530069    0.000169 O.2       1 <1>        -0.259480 
     12 H           3.477246   -1.054993    0.000030 H         1 <1>         0.067748 
     13 H           1.441623   -2.415964   -0.000096 H         1 <1>         0.062605 
     14 H          -1.121321    2.659840    0.000061 H         1 <1>         0.064364 
     15 H          -3.356327    1.399484   -0.000031 H         1 <1>         0.061838 
     16 H          -3.380810   -1.094731   -0.000128 H         1 <1>         0.061778 
     17 H          -1.172360   -2.396823   -0.000142 H         1 <1>         0.062424 
@<TRIPOS>BOND
     1    1    2 1    
     2    1    6 1    
     3    1   11 2    
     4    2    3 2    
     5    2   12 1    
     6    3    4 1    
     7    3   13 1    
     8    4    5 1    
     9    4   10 2    
    10    5    6 1    
    11    5    7 2    
    12    7    8 1    
    13    7   14 1    
    14    8    9 2    
    15    8   15 1    
    16    9   10 1    
    17    9   16 1    
    18   10   17 1    
@<TRIPOS>SUBSTRUCTURE
     1 ****        1 TEMP              0 ****  ****    0 ROOT 
@<TRIPOS>NORMAL
@<TRIPOS>FF_PBC
FORCE_FIELD_SETUP_FEATURE Force Field Setup information
v1.0  0 0.000000 0.000000 0.000000 0.000000 0.000000 0.000000 NONE 0 0 0 0 1 0 0 0 0 0 0 0 0
