@<TRIPOS>MOLECULE
MOL002134
   23    23     1     1     0
SMALL
GASTEIGER


@<TRIPOS>ATOM
      1 C           0.082705   -0.744936    0.431619 C.ar      1 <1>         0.017655 
      2 C           0.992194    0.411843    0.064510 C.2       1 <1>         0.165689 
      3 C           0.686782   -2.086131    0.637904 C.ar      1 <1>        -0.051256 
      4 C          -1.331761   -0.603731    0.591641 C.ar      1 <1>        -0.051256 
      5 C           0.478138    1.763489   -0.386637 C.3       1 <1>         0.016487 
      6 O           2.198659    0.238249    0.135403 O.2       1 <1>        -0.291782 
      7 C          -0.113928   -3.193625    0.978446 C.ar      1 <1>        -0.061097 
      8 C          -2.167549   -1.775292    0.947482 C.ar      1 <1>        -0.061097 
      9 C           1.614461    2.824110   -0.418807 C.3       1 <1>        -0.055615 
     10 C          -0.162587    1.635742   -1.795912 C.3       1 <1>        -0.055615 
     11 C          -1.577963   -3.034064    1.135908 C.ar      1 <1>        -0.061720 
     12 H           1.757791   -2.220533    0.525692 H         1 <1>         0.062450 
     13 H          -1.821029    0.353219    0.460640 H         1 <1>         0.062450 
     14 H          -0.272795    2.120664    0.336711 H         1 <1>         0.037540 
     15 H           0.340307   -4.168273    1.126369 H         1 <1>         0.061777 
     16 H          -3.240389   -1.656754    1.062500 H         1 <1>         0.061777 
     17 H           1.217070    3.808519   -0.711914 H         1 <1>         0.023643 
     18 H           2.073512    2.918482    0.578043 H         1 <1>         0.023643 
     19 H           2.396212    2.535116   -1.138458 H         1 <1>         0.023643 
     20 H          -0.563257    2.607366   -2.124260 H         1 <1>         0.023643 
     21 H          -0.985121    0.905542   -1.799483 H         1 <1>         0.023643 
     22 H           0.593858    1.303918   -2.523948 H         1 <1>         0.023643 
     23 H          -2.190856   -3.891112    1.396792 H         1 <1>         0.061759 
@<TRIPOS>BOND
     1    1    2 1    
     2    1    3 1    
     3    1    4 2    
     4    2    5 1    
     5    2    6 2    
     6    3    7 2    
     7    3   12 1    
     8    4    8 1    
     9    4   13 1    
    10    5    9 1    
    11    5   10 1    
    12    5   14 1    
    13    7   11 1    
    14    7   15 1    
    15    8   11 2    
    16    8   16 1    
    17    9   17 1    
    18    9   18 1    
    19    9   19 1    
    20   10   20 1    
    21   10   21 1    
    22   10   22 1    
    23   11   23 1    
@<TRIPOS>SUBSTRUCTURE
     1 ****        1 TEMP              0 ****  ****    0 ROOT 
@<TRIPOS>NORMAL
@<TRIPOS>FF_PBC
FORCE_FIELD_SETUP_FEATURE Force Field Setup information
v1.0  0 0.000000 0.000000 0.000000 0.000000 0.000000 0.000000 NONE 0 0 0 0 1 0 0 0 0 0 0 0 0
