@<TRIPOS>MOLECULE
MOL004700
   88    92     1     1     0
SMALL
GASTEIGER


@<TRIPOS>ATOM
      1 O          -0.405745    5.554634   -3.364673 O.3       1 <1>        -0.391162 
      2 C          -1.599124    3.055736   -1.986092 C.3       1 <1>        -0.044636 
      3 C           0.945453    0.046758   -1.476627 C.3       1 <1>         0.080545 
      4 C           0.763569   -1.295050   -0.779015 C.2       1 <1>        -0.055289 
      5 C          -0.085488   -1.586351    0.226335 C.2       1 <1>        -0.060744 
      6 C          -0.305780   -3.015723    0.738320 C.3       1 <1>        -0.008707 
      7 C          -0.763390    5.520250   -1.970348 C.3       1 <1>         0.062974 
      8 C           0.455931    5.187979   -1.038513 C.3       1 <1>         0.020274 
      9 C           0.414544    3.668706   -0.557588 C.3       1 <1>        -0.025405 
     10 C          -0.139754    2.598072   -1.576528 C.3       1 <1>        -0.022510 
     11 C          -0.113206    1.099447   -0.999101 C.3       1 <1>         0.000719 
     12 C          -0.216070    0.912881    0.557813 C.3       1 <1>        -0.016923 
     13 C          -0.983508    2.137616    1.123452 C.3       1 <1>        -0.046183 
     14 C          -0.232520    3.475707    0.866282 C.3       1 <1>        -0.048525 
     15 C          -1.948033    4.551250   -1.717075 C.3       1 <1>        -0.025745 
     16 C          -0.919522   -0.486390    0.877552 C.3       1 <1>        -0.002626 
     17 C          -1.047672   -0.704257    2.430545 C.3       1 <1>        -0.016608 
     18 C          -1.223515   -2.169299    2.936574 C.3       1 <1>         0.064286 
     19 C          -0.193419   -3.164583    2.288053 C.3       1 <1>         0.026310 
     20 C          -0.562628   -4.630870    2.699513 C.3       1 <1>        -0.041883 
     21 C           0.223734   -5.739481    1.949551 C.3       1 <1>        -0.047178 
     22 C           0.097375   -5.605237    0.402631 C.3       1 <1>        -0.034297 
     23 C           0.456373   -4.147067   -0.025814 C.3       1 <1>        -0.040647 
     24 C           0.450929    6.209335    0.160353 C.3       1 <1>         0.052200 
     25 O           1.436429    5.836749    1.143050 O.3       1 <1>        -0.394374 
     26 C           1.804246    5.540871   -1.767794 C.3       1 <1>        -0.054830 
     27 C           0.686627    2.583435   -2.906952 C.3       1 <1>        -0.058926 
     28 C           1.218904    0.959022    1.216850 C.3       1 <1>        -0.058408 
     29 O           0.755357   -0.249439   -2.881337 O.3       1 <1>        -0.375443 
     30 C           1.928122   -0.700812   -3.593624 C.3       1 <1>         0.037218 
     31 C          -2.356404   -0.652736    0.257021 C.3       1 <1>        -0.055240 
     32 O          -2.616175   -2.507721    2.763508 O.3       1 <1>        -0.391114 
     33 C           1.240090   -2.820764    2.823658 C.3       1 <1>         0.052730 
     34 O           2.303432   -3.634920    2.301096 O.3       1 <1>        -0.394355 
     35 C           1.108779   -6.591009   -0.262905 C.3       1 <1>        -0.059793 
     36 C          -1.327994   -6.013056   -0.093757 C.3       1 <1>        -0.059793 
     37 H          -1.126350    5.767755   -3.949891 H         1 <1>         0.209801 
     38 H          -1.762630    2.876356   -3.061672 H         1 <1>         0.027150 
     39 H          -2.392422    2.472882   -1.496707 H         1 <1>         0.027150 
     40 H           1.957642    0.437812   -1.291289 H         1 <1>         0.064325 
     41 H           1.399876   -2.070499   -1.184655 H         1 <1>         0.059746 
     42 H          -1.358054   -3.209191    0.495255 H         1 <1>         0.035287 
     43 H          -1.117590    6.546543   -1.759962 H         1 <1>         0.059936 
     44 H           1.479117    3.423813   -0.461465 H         1 <1>         0.031292 
     45 H          -0.997625    0.682435   -1.482774 H         1 <1>         0.033983 
     46 H          -1.126141    2.037509    2.211175 H         1 <1>         0.027097 
     47 H          -1.988154    2.209813    0.695944 H         1 <1>         0.027097 
     48 H           0.554646    3.589519    1.630028 H         1 <1>         0.026847 
     49 H          -0.988491    4.226234    1.117246 H         1 <1>         0.026847 
     50 H          -2.292143    4.682258   -0.681860 H         1 <1>         0.029039 
     51 H          -2.800732    4.844929   -2.353202 H         1 <1>         0.029039 
     52 H          -1.914040   -0.130349    2.796722 H         1 <1>         0.029875 
     53 H          -0.186575   -0.309858    2.975632 H         1 <1>         0.029875 
     54 H          -1.063467   -2.157498    4.032119 H         1 <1>         0.059982 
     55 H          -0.422149   -4.756487    3.785434 H         1 <1>         0.027247 
     56 H          -1.616177   -4.845609    2.487472 H         1 <1>         0.027247 
     57 H          -0.160271   -6.726344    2.258112 H         1 <1>         0.027063 
     58 H           1.278019   -5.720046    2.254527 H         1 <1>         0.027063 
     59 H           1.536954   -4.001341    0.102309 H         1 <1>         0.027632 
     60 H           0.236327   -4.072432   -1.103493 H         1 <1>         0.027632 
     61 H          -0.541679    6.310644    0.625356 H         1 <1>         0.056334 
     62 H           0.697032    7.223851   -0.199919 H         1 <1>         0.056334 
     63 H           1.482595    6.433201    1.884744 H         1 <1>         0.209420 
     64 H           2.645838    5.514662   -1.057939 H         1 <1>         0.023667 
     65 H           1.760314    6.554799   -2.195469 H         1 <1>         0.023667 
     66 H           2.081869    4.873298   -2.586281 H         1 <1>         0.023667 
     67 H           1.751020    2.378467   -2.724698 H         1 <1>         0.023526 
     68 H           0.293956    1.841373   -3.612239 H         1 <1>         0.023526 
     69 H           0.612053    3.507934   -3.475600 H         1 <1>         0.023526 
     70 H           1.901481    1.661411    0.736521 H         1 <1>         0.023543 
     71 H           1.199932    1.266282    2.272087 H         1 <1>         0.023543 
     72 H           1.741948   -0.001004    1.173078 H         1 <1>         0.023543 
     73 H           1.622155   -0.861968   -4.637631 H         1 <1>         0.052375 
     74 H           2.714455    0.069443   -3.587040 H         1 <1>         0.052375 
     75 H           2.347828   -1.643931   -3.217968 H         1 <1>         0.052375 
     76 H          -2.348799   -0.893385   -0.815481 H         1 <1>         0.023830 
     77 H          -2.984535    0.232168    0.406986 H         1 <1>         0.023830 
     78 H          -2.913655   -1.478372    0.708629 H         1 <1>         0.023830 
     79 H          -2.940797   -3.237037    3.280959 H         1 <1>         0.209802 
     80 H           1.245311   -2.915616    3.922714 H         1 <1>         0.056353 
     81 H           1.501869   -1.787482    2.577053 H         1 <1>         0.056353 
     82 H           3.167175   -3.419973    2.642677 H         1 <1>         0.209421 
     83 H           0.886047   -7.629777    0.025957 H         1 <1>         0.023499 
     84 H           2.143101   -6.370112    0.042927 H         1 <1>         0.023499 
     85 H           1.058710   -6.519729   -1.360386 H         1 <1>         0.023499 
     86 H          -2.133134   -5.378351    0.295893 H         1 <1>         0.023499 
     87 H          -1.377307   -5.963619   -1.192294 H         1 <1>         0.023499 
     88 H          -1.552642   -7.048445    0.204772 H         1 <1>         0.023499 
@<TRIPOS>BOND
     1    7    1 1    
     2    1   37 1    
     3   10    2 1    
     4    2   15 1    
     5    2   38 1    
     6    2   39 1    
     7    3    4 1    
     8   11    3 1    
     9    3   29 1    
    10    3   40 1    
    11    4    5 2    
    12    4   41 1    
    13    5    6 1    
    14    5   16 1    
    15    6   19 1    
    16    6   23 1    
    17    6   42 1    
    18    8    7 1    
    19   15    7 1    
    20    7   43 1    
    21    9    8 1    
    22    8   24 1    
    23    8   26 1    
    24   10    9 1    
    25    9   14 1    
    26    9   44 1    
    27   10   11 1    
    28   10   27 1    
    29   11   12 1    
    30   11   45 1    
    31   12   13 1    
    32   12   16 1    
    33   12   28 1    
    34   13   14 1    
    35   13   46 1    
    36   13   47 1    
    37   14   48 1    
    38   14   49 1    
    39   15   50 1    
    40   15   51 1    
    41   16   17 1    
    42   16   31 1    
    43   17   18 1    
    44   17   52 1    
    45   17   53 1    
    46   18   19 1    
    47   18   32 1    
    48   18   54 1    
    49   19   20 1    
    50   19   33 1    
    51   20   21 1    
    52   20   55 1    
    53   20   56 1    
    54   21   22 1    
    55   21   57 1    
    56   21   58 1    
    57   22   23 1    
    58   22   35 1    
    59   22   36 1    
    60   23   59 1    
    61   23   60 1    
    62   24   25 1    
    63   24   61 1    
    64   24   62 1    
    65   25   63 1    
    66   26   64 1    
    67   26   65 1    
    68   26   66 1    
    69   27   67 1    
    70   27   68 1    
    71   27   69 1    
    72   28   70 1    
    73   28   71 1    
    74   28   72 1    
    75   29   30 1    
    76   30   73 1    
    77   30   74 1    
    78   30   75 1    
    79   31   76 1    
    80   31   77 1    
    81   31   78 1    
    82   32   79 1    
    83   33   34 1    
    84   33   80 1    
    85   33   81 1    
    86   34   82 1    
    87   35   83 1    
    88   35   84 1    
    89   35   85 1    
    90   36   86 1    
    91   36   87 1    
    92   36   88 1    
@<TRIPOS>SUBSTRUCTURE
     1 ****        1 TEMP              0 ****  ****    0 ROOT 
@<TRIPOS>NORMAL
@<TRIPOS>FF_PBC
FORCE_FIELD_SETUP_FEATURE Force Field Setup information
v1.0  0 0.000000 0.000000 0.000000 0.000000 0.000000 0.000000 NONE 0 0 0 0 1 0 0 0 0 0 0 0 0
