@<TRIPOS>MOLECULE
MOL004933
  120   126     1     1     0
SMALL
GASTEIGER


@<TRIPOS>ATOM
      1 C          -5.869544   -3.735935    2.912980 C.3       1 <1>        -0.031522 
      2 C          -7.270326   -4.382757    2.624608 C.3       1 <1>         0.053721 
      3 C          -7.146791   -5.926904    2.362940 C.3       1 <1>        -0.038057 
      4 C          -5.891321   -6.436749    1.571408 C.3       1 <1>        -0.046118 
      5 C          -4.532404   -5.768311    2.009252 C.3       1 <1>        -0.025442 
      6 C          -4.753486   -4.219629    1.943271 C.3       1 <1>        -0.012608 
      7 C          -3.404676   -6.115892    0.962342 C.3       1 <1>        -0.046277 
      8 C          -2.335792   -5.003111    0.629991 C.3       1 <1>        -0.042869 
      9 C          -2.139211   -3.895403    1.727853 C.3       1 <1>        -0.004332 
     10 C          -3.551123   -3.306274    1.720451 C.2       1 <1>        -0.056185 
     11 C          -1.045869   -2.756384    1.433960 C.3       1 <1>        -0.012656 
     12 C          -1.465579   -1.681778    0.369721 C.3       1 <1>         0.033332 
     13 C          -2.747974   -1.087892    0.920719 C.2       1 <1>         0.160199 
     14 C          -3.781144   -2.023056    1.399229 C.2       1 <1>        -0.018839 
     15 C           0.238601   -3.417275    0.815826 C.3       1 <1>        -0.045876 
     16 C           1.466332   -2.488800    0.601815 C.3       1 <1>        -0.048587 
     17 C           1.087082   -0.984678    0.483452 C.3       1 <1>        -0.027436 
     18 C          -0.300883   -0.752472   -0.229196 C.3       1 <1>        -0.018250 
     19 C           2.297305   -0.002934    0.225323 C.3       1 <1>        -0.005219 
     20 C           1.787070    1.456920    0.463905 C.3       1 <1>         0.067175 
     21 C           0.532487    1.757650   -0.403105 C.3       1 <1>        -0.025459 
     22 C          -0.618618    0.767241   -0.058569 C.3       1 <1>        -0.044320 
     23 C          -8.121107   -4.185310    3.929663 C.3       1 <1>        -0.050480 
     24 C          -4.235088   -6.344622    3.452902 C.3       1 <1>        -0.059016 
     25 C          -1.676577   -4.635804    3.042660 C.3       1 <1>        -0.055302 
     26 C          -0.819812   -1.959581    2.781427 C.3       1 <1>        -0.058099 
     27 C          -0.231251   -1.068591   -1.763018 C.3       1 <1>        -0.058618 
     28 O          -3.014630    0.101098    0.961030 O.2       1 <1>        -0.292347 
     29 C           3.432765   -0.271783    1.280523 C.3       1 <1>        -0.057181 
     30 C           3.024212   -0.115781   -1.159051 C.3       1 <1>        -0.057181 
     31 O           2.881823    2.355441    0.212645 O.3       1 <1>        -0.344878 
     32 C           2.686242    3.745678    0.558115 C.3       1 <1>         0.188751 
     33 O           3.717776    4.119185    1.491393 O.3       1 <1>        -0.332688 
     34 C           5.051466    3.861160    0.999734 C.3       1 <1>         0.174386 
     35 C           2.826857    4.581919   -0.742431 C.3       1 <1>         0.134512 
     36 C           4.199584    4.204917   -1.362901 C.3       1 <1>         0.121011 
     37 C           5.305517    4.584661   -0.345887 C.3       1 <1>         0.119394 
     38 O           4.532454    4.835198   -2.616054 O.3       1 <1>        -0.340025 
     39 C           3.563178    4.649145   -3.666049 C.3       1 <1>         0.188949 
     40 O           2.729840    5.820030   -3.720044 O.3       1 <1>        -0.332685 
     41 C           4.329555    4.469234   -5.000948 C.3       1 <1>         0.134150 
     42 C           3.497854    7.033818   -3.906168 C.3       1 <1>         0.174377 
     43 C           4.347486    6.974802   -5.204072 C.3       1 <1>         0.119030 
     44 C           5.237522    5.706939   -5.212257 C.3       1 <1>         0.114497 
     45 O           5.168817    8.155202   -5.288426 O.3       1 <1>        -0.386033 
     46 O           5.946226    5.642074   -6.466876 O.3       1 <1>        -0.386388 
     47 O           3.420514    4.343328   -6.115089 O.3       1 <1>        -0.384104 
     48 O           6.601329    4.206068   -0.846961 O.3       1 <1>        -0.386023 
     49 O           2.789904    5.999126   -0.478556 O.3       1 <1>        -0.384093 
     50 C          -8.017874   -3.629367    1.511421 C.2       1 <1>         0.265560 
     51 O          -8.891388   -2.821817    1.789794 O.2       1 <1>        -0.264567 
     52 O          -7.805974   -3.805906    0.206627 O.3       1 <1>        -0.330857 
     53 C           6.036593    4.380471    2.023010 C.2       1 <1>         0.291467 
     54 O           7.088395    3.806199    2.248578 O.2       1 <1>        -0.262180 
     55 O           5.730940    5.500033    2.687968 O.3       1 <1>        -0.329249 
     56 C           2.548628    8.207280   -4.015490 C.2       1 <1>         0.291467 
     57 O           2.801429    9.285157   -3.501102 O.2       1 <1>        -0.262180 
     58 O           1.407558    8.046514   -4.695190 O.3       1 <1>        -0.329249 
     59 H          -5.523788   -3.936341    3.938070 H         1 <1>         0.028121 
     60 H          -6.040424   -2.645522    2.889059 H         1 <1>         0.028121 
     61 H          -7.173502   -6.447040    3.332594 H         1 <1>         0.027550 
     62 H          -8.052870   -6.272616    1.835391 H         1 <1>         0.027550 
     63 H          -6.070405   -6.293904    0.499953 H         1 <1>         0.027098 
     64 H          -5.808229   -7.535005    1.688873 H         1 <1>         0.027098 
     65 H          -5.177795   -4.079785    0.938908 H         1 <1>         0.035146 
     66 H          -2.901744   -7.048585    1.269178 H         1 <1>         0.027096 
     67 H          -3.857479   -6.374255   -0.007190 H         1 <1>         0.027096 
     68 H          -1.399187   -5.546599    0.430934 H         1 <1>         0.027392 
     69 H          -2.614990   -4.507987   -0.313210 H         1 <1>         0.027392 
     70 H          -1.889712   -2.268885   -0.455644 H         1 <1>         0.039170 
     71 H          -4.773816   -1.577175    1.414684 H         1 <1>         0.065218 
     72 H           0.573927   -4.301508    1.382784 H         1 <1>         0.027107 
     73 H          -0.037003   -3.792849   -0.183269 H         1 <1>         0.027107 
     74 H           2.023547   -2.820476   -0.289958 H         1 <1>         0.026846 
     75 H           2.137573   -2.641680    1.467827 H         1 <1>         0.026846 
     76 H           0.908980   -0.704057    1.520551 H         1 <1>         0.031221 
     77 H           1.512560    1.570262    1.525342 H         1 <1>         0.060224 
     78 H           0.153849    2.774320   -0.190832 H         1 <1>         0.029047 
     79 H           0.766536    1.743844   -1.477328 H         1 <1>         0.029047 
     80 H          -1.488862    1.038673   -0.678141 H         1 <1>         0.027160 
     81 H          -0.848890    0.979003    0.997386 H         1 <1>         0.027160 
     82 H          -8.251574   -3.125089    4.197731 H         1 <1>         0.023986 
     83 H          -7.663059   -4.676096    4.802391 H         1 <1>         0.023986 
     84 H          -9.121008   -4.623017    3.806264 H         1 <1>         0.023986 
     85 H          -5.072185   -6.918090    3.877576 H         1 <1>         0.023525 
     86 H          -4.005155   -5.582062    4.205744 H         1 <1>         0.023525 
     87 H          -3.415452   -7.079680    3.476588 H         1 <1>         0.023525 
     88 H          -1.712053   -5.719061    2.916169 H         1 <1>         0.023829 
     89 H          -2.227054   -4.336673    3.944156 H         1 <1>         0.023829 
     90 H          -0.629098   -4.456533    3.303093 H         1 <1>         0.023829 
     91 H          -1.611479   -2.148494    3.521690 H         1 <1>         0.023553 
     92 H          -0.880334   -0.864308    2.689303 H         1 <1>         0.023553 
     93 H           0.147803   -2.211156    3.251712 H         1 <1>         0.023553 
     94 H           0.088933   -2.106402   -1.945297 H         1 <1>         0.023535 
     95 H          -1.227228   -0.939232   -2.220099 H         1 <1>         0.023535 
     96 H           0.430664   -0.413830   -2.334072 H         1 <1>         0.023535 
     97 H           4.204380    0.511377    1.247995 H         1 <1>         0.023587 
     98 H           3.947211   -1.223735    1.079258 H         1 <1>         0.023587 
     99 H           3.056452   -0.296332    2.314383 H         1 <1>         0.023587 
    100 H           3.983497    0.425088   -1.120010 H         1 <1>         0.023587 
    101 H           2.493583    0.314942   -2.012878 H         1 <1>         0.023587 
    102 H           3.257069   -1.162416   -1.399449 H         1 <1>         0.023587 
    103 H           1.736925    3.974512    1.067039 H         1 <1>         0.093763 
    104 H           5.225781    2.782673    0.876026 H         1 <1>         0.072940 
    105 H           2.004211    4.302499   -1.419254 H         1 <1>         0.067105 
    106 H           4.268871    3.120806   -1.547693 H         1 <1>         0.065150 
    107 H           5.276712    5.675695   -0.182088 H         1 <1>         0.065139 
    108 H           2.932279    3.752222   -3.546474 H         1 <1>         0.093766 
    109 H           4.969875    3.571980   -4.930020 H         1 <1>         0.067096 
    110 H           4.157385    7.216289   -3.042432 H         1 <1>         0.072940 
    111 H           3.671254    6.924208   -6.074941 H         1 <1>         0.065129 
    112 H           5.971503    5.795433   -4.392315 H         1 <1>         0.064771 
    113 H           5.723435    8.146555   -6.064227 H         1 <1>         0.210020 
    114 H           6.508855    4.876655   -6.538526 H         1 <1>         0.210005 
    115 H           2.844138    3.587615   -6.055408 H         1 <1>         0.210110 
    116 H           6.792436    4.622661   -1.682029 H         1 <1>         0.210020 
    117 H           1.974087    6.287621   -0.080920 H         1 <1>         0.210111 
    118 H          -7.199645   -4.486309   -0.028403 H         1 <1>         0.220226 
    119 H           4.865851    5.832176    2.472032 H         1 <1>         0.220293 
    120 H           1.287715    7.157483   -5.011447 H         1 <1>         0.220293 
@<TRIPOS>BOND
     1    1    2 1    
     2    1    6 1    
     3    1   59 1    
     4    1   60 1    
     5    2    3 1    
     6    2   23 1    
     7    2   50 1    
     8    3    4 1    
     9    3   61 1    
    10    3   62 1    
    11    4    5 1    
    12    4   63 1    
    13    4   64 1    
    14    5    6 1    
    15    5    7 1    
    16    5   24 1    
    17    6   10 1    
    18    6   65 1    
    19    7    8 1    
    20    7   66 1    
    21    7   67 1    
    22    8    9 1    
    23    8   68 1    
    24    8   69 1    
    25    9   10 1    
    26    9   11 1    
    27    9   25 1    
    28   10   14 2    
    29   11   12 1    
    30   11   15 1    
    31   11   26 1    
    32   12   13 1    
    33   12   18 1    
    34   12   70 1    
    35   13   14 1    
    36   13   28 2    
    37   14   71 1    
    38   15   16 1    
    39   15   72 1    
    40   15   73 1    
    41   16   17 1    
    42   16   74 1    
    43   16   75 1    
    44   17   18 1    
    45   17   19 1    
    46   17   76 1    
    47   18   22 1    
    48   18   27 1    
    49   19   20 1    
    50   19   29 1    
    51   19   30 1    
    52   20   21 1    
    53   20   31 1    
    54   20   77 1    
    55   21   22 1    
    56   21   78 1    
    57   21   79 1    
    58   22   80 1    
    59   22   81 1    
    60   23   82 1    
    61   23   83 1    
    62   23   84 1    
    63   24   85 1    
    64   24   86 1    
    65   24   87 1    
    66   25   88 1    
    67   25   89 1    
    68   25   90 1    
    69   26   91 1    
    70   26   92 1    
    71   26   93 1    
    72   27   94 1    
    73   27   95 1    
    74   27   96 1    
    75   29   97 1    
    76   29   98 1    
    77   29   99 1    
    78   30  100 1    
    79   30  101 1    
    80   30  102 1    
    81   31   32 1    
    82   32   33 1    
    83   32   35 1    
    84   32  103 1    
    85   33   34 1    
    86   34   37 1    
    87   34   53 1    
    88   34  104 1    
    89   35   36 1    
    90   35   49 1    
    91   35  105 1    
    92   36   37 1    
    93   36   38 1    
    94   36  106 1    
    95   37   48 1    
    96   37  107 1    
    97   38   39 1    
    98   39   40 1    
    99   39   41 1    
   100   39  108 1    
   101   40   42 1    
   102   41   44 1    
   103   41   47 1    
   104   41  109 1    
   105   42   43 1    
   106   42   56 1    
   107   42  110 1    
   108   43   44 1    
   109   43   45 1    
   110   43  111 1    
   111   44   46 1    
   112   44  112 1    
   113   45  113 1    
   114   46  114 1    
   115   47  115 1    
   116   48  116 1    
   117   49  117 1    
   118   50   51 2    
   119   50   52 1    
   120   52  118 1    
   121   53   54 2    
   122   53   55 1    
   123   55  119 1    
   124   56   57 2    
   125   56   58 1    
   126   58  120 1    
@<TRIPOS>SUBSTRUCTURE
     1 ****        1 TEMP              0 ****  ****    0 ROOT 
@<TRIPOS>NORMAL
@<TRIPOS>FF_PBC
FORCE_FIELD_SETUP_FEATURE Force Field Setup information
v1.0  0 0.000000 0.000000 0.000000 0.000000 0.000000 0.000000 NONE 0 0 0 0 1 0 0 0 0 0 0 0 0
