@<TRIPOS>MOLECULE
MOL012965
   99   102     1     1     0
SMALL
GASTEIGER


@<TRIPOS>ATOM
      1 O          -2.953232    0.281844    2.662062 O.3       1 <1>        -0.340042 
      2 O          -0.644258    1.008605    1.493997 O.3       1 <1>        -0.337749 
      3 O          -1.728258   -1.740068   -0.825787 O.3       1 <1>        -0.340502 
      4 O           0.345192   -0.745703   -0.796765 O.3       1 <1>        -0.341636 
      5 O          -4.771027   -0.486902    3.801534 O.3       1 <1>        -0.340520 
      6 O           0.969736    2.005117    0.242794 O.3       1 <1>        -0.340519 
      7 O          -4.956154   -1.154658    0.916250 O.3       1 <1>        -0.386478 
      8 O          -3.883081    3.025679    2.978038 O.3       1 <1>        -0.384104 
      9 O           1.212539    0.682408    3.686931 O.3       1 <1>        -0.384104 
     10 O           4.716797   -2.219556   -1.972482 O.3       1 <1>        -0.379654 
     11 O          -5.632144    3.361514    5.262600 O.3       1 <1>        -0.386401 
     12 O           3.534568    2.366140    3.545049 O.3       1 <1>        -0.386401 
     13 O          -7.549068    1.223612    5.589153 O.3       1 <1>        -0.386488 
     14 O           4.590935    2.717467    0.920878 O.3       1 <1>        -0.386488 
     15 O          -5.126983   -3.144514   -0.671218 O.3       1 <1>        -0.392366 
     16 O          -7.838783   -1.354965    5.633912 O.3       1 <1>        -0.392366 
     17 O           2.299976    2.690570   -2.516005 O.3       1 <1>        -0.392366 
     18 O           7.503327   -0.683698   -5.782656 O.2       1 <1>        -0.292661 
     19 C          -2.779377   -0.066949    1.273460 C.3       1 <1>         0.120942 
     20 C          -1.257025   -0.215888    1.024699 C.3       1 <1>         0.141000 
     21 C          -3.529142   -1.356877    0.842528 C.3       1 <1>         0.112270 
     22 C          -1.043217   -0.517206   -0.482379 C.3       1 <1>         0.188922 
     23 C          -3.152386   -1.695368   -0.624255 C.3       1 <1>         0.113015 
     24 C          -4.302679    0.624903    3.019579 C.3       1 <1>         0.188437 
     25 C           0.782221    1.073700    1.322347 C.3       1 <1>         0.188544 
     26 C           4.527692   -2.027017   -4.459191 C.3       1 <1>         0.008343 
     27 C          -4.272147    1.934836    3.838855 C.3       1 <1>         0.134124 
     28 C           1.418852    1.623782    2.615318 C.3       1 <1>         0.134126 
     29 C           4.456871   -1.308224   -3.057174 C.3       1 <1>         0.110840 
     30 C          -5.686004    2.203110    4.409060 C.3       1 <1>         0.114061 
     31 C           2.933191    1.809863    2.361080 C.3       1 <1>         0.114061 
     32 C          -6.191012    0.962877    5.186999 C.3       1 <1>         0.111896 
     33 C           3.165592    2.738484    1.142573 C.3       1 <1>         0.111896 
     34 C          -6.111743   -0.299433    4.286760 C.3       1 <1>         0.113005 
     35 C           2.347470    2.257088   -0.092123 C.3       1 <1>         0.113005 
     36 C          -3.726460   -3.081771   -1.013052 C.3       1 <1>         0.073015 
     37 C           6.007610   -2.275447   -4.870345 C.3       1 <1>         0.018235 
     38 C           0.604704   -1.077206   -2.177915 C.3       1 <1>         0.077195 
     39 C           5.473265   -0.180754   -2.927087 C.2       1 <1>        -0.033891 
     40 C           3.046273   -0.782088   -2.875540 C.2       1 <1>        -0.049762 
     41 C           3.824606   -3.416928   -4.409734 C.3       1 <1>        -0.056178 
     42 C           3.858236   -1.157004   -5.574183 C.3       1 <1>        -0.056178 
     43 C           2.063049   -1.476457   -2.276361 C.2       1 <1>        -0.056725 
     44 C          -6.518691   -1.559828    5.089327 C.3       1 <1>         0.073015 
     45 C           2.332281    3.326347   -1.225094 C.3       1 <1>         0.073015 
     46 C           6.731102   -0.965691   -4.880459 C.2       1 <1>         0.156765 
     47 C           6.489493   -0.019972   -3.783548 C.2       1 <1>        -0.017210 
     48 C           0.197156    0.056097   -3.159056 C.3       1 <1>        -0.034958 
     49 C           5.307861    0.762269   -1.757691 C.3       1 <1>        -0.040377 
     50 H          -5.452379   -1.910950    0.609481 H         1 <1>         0.210004 
     51 H          -3.871804    3.857136    3.443022 H         1 <1>         0.210110 
     52 H           1.624774    0.975781    4.494414 H         1 <1>         0.210110 
     53 H           5.597359   -2.570786   -1.968042 H         1 <1>         0.211064 
     54 H          -6.484757    3.557489    5.641755 H         1 <1>         0.210005 
     55 H           4.469371    2.516319    3.426281 H         1 <1>         0.210005 
     56 H          -7.949605    0.462390    6.004696 H         1 <1>         0.210004 
     57 H           4.902793    3.321939    0.256123 H         1 <1>         0.210004 
     58 H          -5.530285   -3.986581   -0.866405 H         1 <1>         0.209508 
     59 H          -8.159725   -2.108280    6.122332 H         1 <1>         0.209508 
     60 H           2.241788    3.298997   -3.247096 H         1 <1>         0.209508 
     61 H          -3.127141    0.779550    0.657465 H         1 <1>         0.065147 
     62 H          -0.885575   -1.059526    1.629993 H         1 <1>         0.067487 
     63 H          -3.218327   -2.178064    1.512426 H         1 <1>         0.064683 
     64 H          -1.410506    0.366197   -1.025620 H         1 <1>         0.093771 
     65 H          -3.603220   -0.934009   -1.279171 H         1 <1>         0.064668 
     66 H          -4.961779    0.836615    2.162006 H         1 <1>         0.093753 
     67 H           1.251354    0.091093    1.154017 H         1 <1>         0.093754 
     68 H          -3.549927    1.810869    4.663496 H         1 <1>         0.067095 
     69 H           0.951510    2.596685    2.846295 H         1 <1>         0.067095 
     70 H          -6.371192    2.400987    3.565810 H         1 <1>         0.064758 
     71 H           3.384379    0.822580    2.154936 H         1 <1>         0.064758 
     72 H          -5.545227    0.819946    6.070596 H         1 <1>         0.064673 
     73 H           2.832512    3.748881    1.432074 H         1 <1>         0.064673 
     74 H          -6.819986   -0.192918    3.447080 H         1 <1>         0.064668 
     75 H           2.778378    1.318829   -0.466240 H         1 <1>         0.064668 
     76 H          -3.170547   -3.858715   -0.460508 H         1 <1>         0.058370 
     77 H          -3.575111   -3.244832   -2.093456 H         1 <1>         0.058370 
     78 H           6.060863   -2.738278   -5.868730 H         1 <1>         0.035125 
     79 H           6.521726   -2.943875   -4.164833 H         1 <1>         0.035125 
     80 H           0.037501   -1.979784   -2.465445 H         1 <1>         0.063841 
     81 H           2.842881    0.200504   -3.295215 H         1 <1>         0.060147 
     82 H           4.314135   -4.077569   -3.676726 H         1 <1>         0.023618 
     83 H           2.764318   -3.323721   -4.134705 H         1 <1>         0.023618 
     84 H           3.874300   -3.909961   -5.393361 H         1 <1>         0.023618 
     85 H           4.287710   -0.142832   -5.594097 H         1 <1>         0.023618 
     86 H           2.771766   -1.065809   -5.422777 H         1 <1>         0.023618 
     87 H           4.008693   -1.610339   -6.566703 H         1 <1>         0.023618 
     88 H           2.299882   -2.436713   -1.818417 H         1 <1>         0.059532 
     89 H          -6.498343   -2.433575    4.415307 H         1 <1>         0.058370 
     90 H          -5.787298   -1.724689    5.898874 H         1 <1>         0.058370 
     91 H           3.218020    3.977138   -1.192870 H         1 <1>         0.058370 
     92 H           1.442476    3.964859   -1.094089 H         1 <1>         0.058370 
     93 H           7.182689    0.816002   -3.694355 H         1 <1>         0.065274 
     94 H           0.579816   -0.157746   -4.168690 H         1 <1>         0.025765 
     95 H          -0.895694    0.152074   -3.234802 H         1 <1>         0.025765 
     96 H           0.602166    1.015855   -2.810910 H         1 <1>         0.025765 
     97 H           4.938348    0.213510   -0.878078 H         1 <1>         0.027546 
     98 H           4.605300    1.560593   -2.029543 H         1 <1>         0.027546 
     99 H           6.264951    1.225447   -1.474316 H         1 <1>         0.027546 
@<TRIPOS>BOND
     1   19    1 1    
     2    1   24 1    
     3   20    2 1    
     4    2   25 1    
     5   22    3 1    
     6    3   23 1    
     7    4   22 1    
     8   38    4 1    
     9   24    5 1    
    10    5   34 1    
    11   25    6 1    
    12    6   35 1    
    13   21    7 1    
    14    7   50 1    
    15   27    8 1    
    16    8   51 1    
    17   28    9 1    
    18    9   52 1    
    19   29   10 1    
    20   10   53 1    
    21   30   11 1    
    22   11   54 1    
    23   31   12 1    
    24   12   55 1    
    25   32   13 1    
    26   13   56 1    
    27   33   14 1    
    28   14   57 1    
    29   36   15 1    
    30   15   58 1    
    31   44   16 1    
    32   16   59 1    
    33   45   17 1    
    34   17   60 1    
    35   46   18 2    
    36   20   19 1    
    37   19   21 1    
    38   19   61 1    
    39   22   20 1    
    40   20   62 1    
    41   23   21 1    
    42   21   63 1    
    43   22   64 1    
    44   23   36 1    
    45   23   65 1    
    46   24   27 1    
    47   24   66 1    
    48   25   28 1    
    49   25   67 1    
    50   29   26 1    
    51   26   37 1    
    52   26   41 1    
    53   26   42 1    
    54   27   30 1    
    55   27   68 1    
    56   28   31 1    
    57   28   69 1    
    58   29   39 1    
    59   40   29 1    
    60   30   32 1    
    61   30   70 1    
    62   31   33 1    
    63   31   71 1    
    64   34   32 1    
    65   32   72 1    
    66   35   33 1    
    67   33   73 1    
    68   34   44 1    
    69   34   74 1    
    70   35   45 1    
    71   35   75 1    
    72   36   76 1    
    73   36   77 1    
    74   37   46 1    
    75   37   78 1    
    76   37   79 1    
    77   43   38 1    
    78   38   48 1    
    79   38   80 1    
    80   39   47 2    
    81   39   49 1    
    82   40   43 2    
    83   40   81 1    
    84   41   82 1    
    85   41   83 1    
    86   41   84 1    
    87   42   85 1    
    88   42   86 1    
    89   42   87 1    
    90   43   88 1    
    91   44   89 1    
    92   44   90 1    
    93   45   91 1    
    94   45   92 1    
    95   46   47 1    
    96   47   93 1    
    97   48   94 1    
    98   48   95 1    
    99   48   96 1    
   100   49   97 1    
   101   49   98 1    
   102   49   99 1    
@<TRIPOS>SUBSTRUCTURE
     1 ****       10 TEMP              0 ****  ****    0 ROOT 
@<TRIPOS>NORMAL
@<TRIPOS>FF_PBC
FORCE_FIELD_SETUP_FEATURE Force Field Setup information
v1.0  0 0.000000 0.000000 0.000000 0.000000 0.000000 0.000000 NONE 0 0 0 0 1 0 0 0 0 0 0 0 0
