@<TRIPOS>MOLECULE
MOL002368
  100   107     1     1     0
SMALL
GASTEIGER


@<TRIPOS>ATOM
      1 O          -2.307380    4.291021   -1.575342 O.3       1 <1>        -0.311833 
      2 O           3.714405   -2.266018   -1.379344 O.3       1 <1>        -0.311833 
      3 O          -3.657042    5.991850   -2.434682 O.3       1 <1>        -0.340168 
      4 O           4.770756   -3.664208   -3.027199 O.3       1 <1>        -0.340168 
      5 O          -3.222363    4.830095   -5.206932 O.3       1 <1>        -0.384091 
      6 O           7.390683   -2.634149   -2.007958 O.3       1 <1>        -0.384091 
      7 O          -4.506966    2.461796   -2.712601 O.3       1 <1>        -0.386401 
      8 O           5.023473   -3.831662    0.546616 O.3       1 <1>        -0.386401 
      9 O          -5.777895    5.570535   -4.388597 O.3       1 <1>        -0.386488 
     10 O           7.126700   -5.379531   -2.091245 O.3       1 <1>        -0.386488 
     11 O          -2.697952    3.675811    0.985534 O.2       1 <1>        -0.286459 
     12 O           1.659747   -3.240515    0.334261 O.2       1 <1>        -0.286459 
     13 O          -4.564585    2.560753    2.475127 O.3       1 <1>        -0.359093 
     14 O           1.483329   -4.411902    2.869176 O.3       1 <1>        -0.359093 
     15 O          -6.430516    4.458203   -0.383361 O.3       1 <1>        -0.392366 
     16 O           3.180152   -6.606538   -1.342984 O.3       1 <1>        -0.392366 
     17 O          -4.308673   -2.166439    5.225122 O.3       1 <1>        -0.327489 
     18 O          -1.393713   -2.273999    6.874668 O.3       1 <1>        -0.327489 
     19 O          -3.072482   -3.212532    3.780386 O.2       1 <1>        -0.259428 
     20 O          -0.538220   -0.265870    6.764717 O.2       1 <1>        -0.259428 
     21 C          -0.503207    0.130373    0.691046 C.3       1 <1>         0.021588 
     22 C           0.729196    0.328218    1.631529 C.3       1 <1>         0.021588 
     23 C          -0.474331    1.152729   -0.458585 C.ar      1 <1>        -0.025759 
     24 C           2.009717    0.240850    0.793408 C.ar      1 <1>        -0.025759 
     25 C          -1.784466    0.163539    1.543368 C.ar      1 <1>        -0.025032 
     26 C           0.695616   -0.796915    2.665519 C.ar      1 <1>        -0.025032 
     27 C          -1.356321    2.344724   -0.448420 C.ar      1 <1>         0.056150 
     28 C           2.415491   -0.967126    0.330644 C.ar      1 <1>         0.056150 
     29 C          -2.627888    1.377947    1.601305 C.ar      1 <1>         0.055821 
     30 C           1.135525   -2.014376    2.305601 C.ar      1 <1>         0.055821 
     31 C          -2.270210    2.562250    0.733325 C.2       1 <1>         0.198636 
     32 C           1.732847   -2.178740    0.925130 C.2       1 <1>         0.198636 
     33 C          -3.181476    4.091203   -3.963043 C.3       1 <1>         0.134509 
     34 C           6.162509   -2.649623   -1.249986 C.3       1 <1>         0.134509 
     35 C          -2.686793    4.983683   -2.778164 C.3       1 <1>         0.193669 
     36 C           4.906271   -2.526646   -2.155482 C.3       1 <1>         0.193669 
     37 C          -4.593556    3.515074   -3.692411 C.3       1 <1>         0.114074 
     38 C           6.075005   -3.961401   -0.431169 C.3       1 <1>         0.114074 
     39 C          -5.561675    4.661502   -3.287807 C.3       1 <1>         0.111896 
     40 C           5.884383   -5.174115   -1.384362 C.3       1 <1>         0.111896 
     41 C          -1.357173    3.260801   -1.548866 C.ar      1 <1>         0.090545 
     42 C           3.481791   -1.048448   -0.706088 C.ar      1 <1>         0.090545 
     43 C           0.393850    0.961855   -1.568374 C.ar      1 <1>        -0.057128 
     44 C           2.782992    1.463581    0.474763 C.ar      1 <1>        -0.057128 
     45 C          -4.971231    5.484354   -2.110339 C.3       1 <1>         0.113017 
     46 C           4.700305   -4.940633   -2.367710 C.3       1 <1>         0.113017 
     47 C          -2.174587   -0.974299    2.304359 C.ar      1 <1>        -0.044250 
     48 C           0.131782   -0.563045    4.018471 C.ar      1 <1>        -0.044250 
     49 C          -3.766888    1.417818    2.450524 C.ar      1 <1>         0.084406 
     50 C           1.016057   -3.151135    3.252216 C.ar      1 <1>         0.084406 
     51 C          -0.355837    3.088420   -2.632621 C.ar      1 <1>        -0.030849 
     52 C           4.182409    0.102669   -0.997159 C.ar      1 <1>        -0.030849 
     53 C           0.477299    1.973294   -2.645051 C.ar      1 <1>        -0.059004 
     54 C           3.829099    1.389609   -0.355462 C.ar      1 <1>        -0.059004 
     55 C          -3.322566   -0.928137    3.243836 C.ar      1 <1>         0.049022 
     56 C          -0.017996   -1.596810    4.881665 C.ar      1 <1>         0.049022 
     57 C          -4.101666    0.246848    3.299626 C.ar      1 <1>        -0.018357 
     58 C           0.458794   -2.945525    4.479591 C.ar      1 <1>        -0.018357 
     59 C          -5.065308    4.767526   -0.732950 C.3       1 <1>         0.073015 
     60 C           3.308540   -5.228208   -1.748512 C.3       1 <1>         0.073015 
     61 C          -3.578828   -2.151057    4.107838 C.2       1 <1>         0.291326 
     62 C          -0.667049   -1.356590    6.232447 C.2       1 <1>         0.291326 
     63 H          -0.468476   -0.865516    0.218699 H         1 <1>         0.040672 
     64 H           0.656909    1.310000    2.128858 H         1 <1>         0.040672 
     65 H          -2.514092    3.226227   -4.112508 H         1 <1>         0.067108 
     66 H           6.181927   -1.811061   -0.534526 H         1 <1>         0.067108 
     67 H          -1.806722    5.558592   -3.102676 H         1 <1>         0.094160 
     68 H           5.044058   -1.735701   -2.906269 H         1 <1>         0.094160 
     69 H          -4.949368    3.062900   -4.634888 H         1 <1>         0.064758 
     70 H           7.031737   -4.087854    0.105035 H         1 <1>         0.064758 
     71 H          -6.537427    4.242508   -2.989464 H         1 <1>         0.064673 
     72 H           5.688690   -6.074702   -0.776993 H         1 <1>         0.064673 
     73 H          -5.593607    6.388610   -2.014019 H         1 <1>         0.064668 
     74 H           4.796587   -5.664565   -3.192167 H         1 <1>         0.064668 
     75 H           1.011281    0.075449   -1.643978 H         1 <1>         0.062069 
     76 H           2.512863    2.413757    0.926099 H         1 <1>         0.062069 
     77 H          -1.613422   -1.896436    2.216209 H         1 <1>         0.062839 
     78 H          -0.180138    0.436804    4.303375 H         1 <1>         0.062839 
     79 H          -0.249348    3.823715   -3.420839 H         1 <1>         0.064350 
     80 H           4.994415    0.128295   -1.710145 H         1 <1>         0.064350 
     81 H           1.203697    1.845225   -3.441477 H         1 <1>         0.061846 
     82 H           4.421384    2.273657   -0.570439 H         1 <1>         0.061846 
     83 H          -4.953679    0.323069    3.961307 H         1 <1>         0.065115 
     84 H           0.376069   -3.772825    5.173934 H         1 <1>         0.065115 
     85 H          -4.598260    5.397199    0.043484 H         1 <1>         0.058370 
     86 H          -4.532691    3.811851   -0.748257 H         1 <1>         0.058370 
     87 H           2.516064   -4.956011   -2.466384 H         1 <1>         0.058370 
     88 H           3.176024   -4.622835   -0.850797 H         1 <1>         0.058370 
     89 H          -2.378620    5.176647   -5.481893 H         1 <1>         0.210111 
     90 H           7.520007   -1.843237   -2.520782 H         1 <1>         0.210111 
     91 H          -5.345467    2.049724   -2.527601 H         1 <1>         0.210005 
     92 H           4.928617   -4.592665    1.111079 H         1 <1>         0.210005 
     93 H          -6.127543    5.158909   -5.172355 H         1 <1>         0.210004 
     94 H           7.124722   -6.127317   -2.680169 H         1 <1>         0.210004 
     95 H          -5.457672    2.403449    2.755411 H         1 <1>         0.217340 
     96 H           1.232868   -5.131489    3.437873 H         1 <1>         0.217340 
     97 H          -6.972187    5.229201   -0.245390 H         1 <1>         0.209508 
     98 H           3.222902   -7.223175   -2.066679 H         1 <1>         0.209508 
     99 H          -4.617397   -1.320533    5.520086 H         1 <1>         0.220555 
    100 H          -1.558790   -3.060904    6.368478 H         1 <1>         0.220555 
@<TRIPOS>BOND
     1    1   35 1    
     2   41    1 1    
     3    2   36 1    
     4   42    2 1    
     5   35    3 1    
     6    3   45 1    
     7   36    4 1    
     8    4   46 1    
     9   33    5 1    
    10    5   89 1    
    11   34    6 1    
    12    6   90 1    
    13   37    7 1    
    14    7   91 1    
    15   38    8 1    
    16    8   92 1    
    17   39    9 1    
    18    9   93 1    
    19   40   10 1    
    20   10   94 1    
    21   31   11 2    
    22   32   12 2    
    23   49   13 1    
    24   13   95 1    
    25   50   14 1    
    26   14   96 1    
    27   59   15 1    
    28   15   97 1    
    29   60   16 1    
    30   16   98 1    
    31   61   17 1    
    32   17   99 1    
    33   62   18 1    
    34   18  100 1    
    35   61   19 2    
    36   62   20 2    
    37   22   21 1    
    38   21   23 1    
    39   21   25 1    
    40   21   63 1    
    41   22   24 1    
    42   26   22 1    
    43   22   64 1    
    44   23   27 1    
    45   23   43 2    
    46   24   28 2    
    47   24   44 1    
    48   25   29 1    
    49   25   47 2    
    50   26   30 2    
    51   48   26 1    
    52   27   31 1    
    53   27   41 2    
    54   32   28 1    
    55   28   42 1    
    56   29   31 1    
    57   29   49 2    
    58   30   32 1    
    59   50   30 1    
    60   35   33 1    
    61   33   37 1    
    62   33   65 1    
    63   36   34 1    
    64   34   38 1    
    65   34   66 1    
    66   35   67 1    
    67   36   68 1    
    68   37   39 1    
    69   37   69 1    
    70   38   40 1    
    71   38   70 1    
    72   45   39 1    
    73   39   71 1    
    74   46   40 1    
    75   40   72 1    
    76   41   51 1    
    77   42   52 2    
    78   43   53 1    
    79   43   75 1    
    80   44   54 2    
    81   44   76 1    
    82   45   59 1    
    83   45   73 1    
    84   46   60 1    
    85   46   74 1    
    86   47   55 1    
    87   47   77 1    
    88   56   48 2    
    89   48   78 1    
    90   49   57 1    
    91   58   50 2    
    92   53   51 2    
    93   51   79 1    
    94   54   52 1    
    95   52   80 1    
    96   53   81 1    
    97   54   82 1    
    98   55   57 2    
    99   55   61 1    
   100   56   58 1    
   101   56   62 1    
   102   57   83 1    
   103   58   84 1    
   104   59   85 1    
   105   59   86 1    
   106   60   87 1    
   107   60   88 1    
@<TRIPOS>SUBSTRUCTURE
     1 ****        6 TEMP              0 ****  ****    0 ROOT 
@<TRIPOS>NORMAL
@<TRIPOS>FF_PBC
FORCE_FIELD_SETUP_FEATURE Force Field Setup information
v1.0  0 0.000000 0.000000 0.000000 0.000000 0.000000 0.000000 NONE 0 0 0 0 1 0 0 0 0 0 0 0 0
