@<TRIPOS>MOLECULE
MOL004045
   37    39     1     1     0
SMALL
GASTEIGER


@<TRIPOS>ATOM
      1 C          -0.862040    0.198203   -0.601086 C.3       1 <1>        -0.024951 
      2 C          -2.204667   -0.366043   -0.071844 C.3       1 <1>        -0.024700 
      3 C          -1.227607   -1.290456   -0.842410 C.3       1 <1>        -0.013568 
      4 C           0.411573    0.330299    0.272665 C.3       1 <1>        -0.027772 
      5 C           1.588286   -0.339859   -0.495919 C.3       1 <1>        -0.013045 
      6 C           0.843944    1.807556    0.528983 C.3       1 <1>        -0.040191 
      7 C          -3.446514    0.153227   -0.843025 C.3       1 <1>        -0.058989 
      8 C          -2.382166   -0.521210    1.464133 C.3       1 <1>        -0.058989 
      9 C           2.763548    0.653880   -0.313659 C.3       1 <1>        -0.045704 
     10 C           2.053288    2.022990   -0.408231 C.3       1 <1>        -0.049625 
     11 C          -0.657299   -2.430211   -0.035440 C.2       1 <1>        -0.079862 
     12 C           1.799139   -1.772641   -0.054631 C.2       1 <1>        -0.051358 
     13 C           0.631479   -2.624661    0.282632 C.2       1 <1>        -0.062488 
     14 C          -0.267174    2.878912    0.363977 C.3       1 <1>        -0.062136 
     15 C           3.031096   -2.293828    0.045017 C.2       1 <1>        -0.095230 
     16 H          -0.864075    0.730283   -1.565849 H         1 <1>         0.031487 
     17 H          -1.586301   -1.550615   -1.850765 H         1 <1>         0.035125 
     18 H           0.291848   -0.145601    1.256544 H         1 <1>         0.031219 
     19 H           1.381201   -0.374054   -1.579243 H         1 <1>         0.035147 
     20 H           1.225906    1.892919    1.564288 H         1 <1>         0.030106 
     21 H          -3.748787    1.122499   -0.418840 H         1 <1>         0.023525 
     22 H          -4.272558   -0.563313   -0.720387 H         1 <1>         0.023525 
     23 H          -3.258544    0.284991   -1.919462 H         1 <1>         0.023525 
     24 H          -1.627757   -1.144438    1.962221 H         1 <1>         0.023525 
     25 H          -3.360432   -0.985314    1.657794 H         1 <1>         0.023525 
     26 H          -2.375170    0.477835    1.924052 H         1 <1>         0.023525 
     27 H           3.551204    0.547755   -1.077862 H         1 <1>         0.027124 
     28 H           3.210749    0.534717    0.687528 H         1 <1>         0.027124 
     29 H           2.697109    2.861629   -0.096059 H         1 <1>         0.026812 
     30 H           1.710544    2.199200   -1.441326 H         1 <1>         0.026812 
     31 H          -1.395771   -3.162062    0.297115 H         1 <1>         0.057516 
     32 H           0.838823   -3.527485    0.860238 H         1 <1>         0.061719 
     33 H          -1.121064    2.637934    1.015432 H         1 <1>         0.023250 
     34 H           0.124686    3.867495    0.649849 H         1 <1>         0.023250 
     35 H          -0.620450    2.943953   -0.675050 H         1 <1>         0.023250 
     36 H           3.933237   -1.732898   -0.190718 H         1 <1>         0.053757 
     37 H           3.189415   -3.322388    0.368337 H         1 <1>         0.053757 
@<TRIPOS>BOND
     1    1    2 1    
     2    1    3 1    
     3    1    4 1    
     4    1   16 1    
     5    2    3 1    
     6    2    7 1    
     7    2    8 1    
     8    3   11 1    
     9    3   17 1    
    10    4    5 1    
    11    4    6 1    
    12    4   18 1    
    13    5    9 1    
    14    5   12 1    
    15    5   19 1    
    16    6   10 1    
    17    6   14 1    
    18    6   20 1    
    19    7   21 1    
    20    7   22 1    
    21    7   23 1    
    22    8   24 1    
    23    8   25 1    
    24    8   26 1    
    25    9   10 1    
    26    9   27 1    
    27    9   28 1    
    28   10   29 1    
    29   10   30 1    
    30   11   13 2    
    31   11   31 1    
    32   12   13 1    
    33   12   15 2    
    34   13   32 1    
    35   14   33 1    
    36   14   34 1    
    37   14   35 1    
    38   15   36 1    
    39   15   37 1    
@<TRIPOS>SUBSTRUCTURE
     1 ****        1 TEMP              0 ****  ****    0 ROOT 
@<TRIPOS>NORMAL
@<TRIPOS>FF_PBC
FORCE_FIELD_SETUP_FEATURE Force Field Setup information
v1.0  0 0.000000 0.000000 0.000000 0.000000 0.000000 0.000000 NONE 0 0 0 0 1 0 0 0 0 0 0 0 0
