@<TRIPOS>MOLECULE
MOL004063
   41    43     1     1     0
SMALL
GASTEIGER


@<TRIPOS>ATOM
      1 C           0.533911   -0.637849    0.004587 C.3       1 <1>        -0.028961 
      2 C           1.339334   -0.717067    1.336805 C.3       1 <1>        -0.028418 
      3 C           1.972903   -0.051325    0.086831 C.3       1 <1>        -0.032008 
      4 C          -0.731672    0.271852   -0.085907 C.3       1 <1>        -0.031786 
      5 C          -0.635803    1.675104   -0.764167 C.3       1 <1>        -0.035094 
      6 C           2.210757    1.478439    0.073769 C.3       1 <1>        -0.049187 
      7 C          -1.892289   -0.436648   -0.853519 C.3       1 <1>        -0.040500 
      8 C           0.471948    1.724308   -1.881217 C.3       1 <1>        -0.040768 
      9 C          -2.120589    1.963221   -1.183856 C.3       1 <1>        -0.049448 
     10 C           1.873314    2.108725   -1.302342 C.3       1 <1>        -0.049923 
     11 C           1.980410   -2.088374    1.688030 C.3       1 <1>        -0.059280 
     12 C           0.973112    0.146743    2.578381 C.3       1 <1>        -0.059280 
     13 C          -2.953298    0.687573   -0.879197 C.3       1 <1>        -0.049923 
     14 C          -1.604123   -0.909368   -2.313698 C.3       1 <1>        -0.062146 
     15 C           0.174977    2.698721   -3.061829 C.3       1 <1>        -0.062154 
     16 H           0.433439   -1.655615   -0.399647 H         1 <1>         0.031171 
     17 H           2.681882   -0.657009   -0.504994 H         1 <1>         0.030896 
     18 H          -1.133762    0.392812    0.933382 H         1 <1>         0.030903 
     19 H          -0.378551    2.444574   -0.018850 H         1 <1>         0.030619 
     20 H           3.284214    1.628041    0.270948 H         1 <1>         0.026828 
     21 H           1.690694    2.027080    0.860430 H         1 <1>         0.026828 
     22 H          -2.246316   -1.316516   -0.284376 H         1 <1>         0.030096 
     23 H           0.594367    0.720619   -2.314510 H         1 <1>         0.030088 
     24 H          -2.547056    2.815277   -0.624044 H         1 <1>         0.026819 
     25 H          -2.240765    2.200561   -2.246279 H         1 <1>         0.026819 
     26 H           2.655511    1.809102   -2.024211 H         1 <1>         0.026803 
     27 H           1.938105    3.205834   -1.192640 H         1 <1>         0.026803 
     28 H           1.907974    0.404633    3.098631 H         1 <1>         0.023516 
     29 H           0.420425    1.076084    2.404299 H         1 <1>         0.023516 
     30 H           0.355765   -0.467723    3.249823 H         1 <1>         0.023516 
     31 H           1.271759   -2.661757    2.306997 H         1 <1>         0.023516 
     32 H           2.233683   -2.694576    0.802885 H         1 <1>         0.023516 
     33 H           2.905351   -1.914643    2.260698 H         1 <1>         0.023516 
     34 H          -3.755139    0.504581   -1.613015 H         1 <1>         0.026803 
     35 H          -3.420540    0.764675    0.119234 H         1 <1>         0.026803 
     36 H          -2.460671   -1.505815   -2.669957 H         1 <1>         0.023250 
     37 H          -0.710816   -1.545740   -2.391792 H         1 <1>         0.023250 
     38 H          -1.489924   -0.068762   -3.012207 H         1 <1>         0.023250 
     39 H          -0.580994    2.293731   -3.751353 H         1 <1>         0.023250 
     40 H          -0.168042    3.670361   -2.671379 H         1 <1>         0.023250 
     41 H           1.084723    2.870198   -3.662516 H         1 <1>         0.023250 
@<TRIPOS>BOND
     1    1    2 1    
     2    1    3 1    
     3    1    4 1    
     4    1   16 1    
     5    2    3 1    
     6    2   11 1    
     7    2   12 1    
     8    3    6 1    
     9    3   17 1    
    10    4    5 1    
    11    4    7 1    
    12    4   18 1    
    13    5    8 1    
    14    5    9 1    
    15    5   19 1    
    16    6   10 1    
    17    6   20 1    
    18    6   21 1    
    19    7   13 1    
    20    7   14 1    
    21    7   22 1    
    22    8   10 1    
    23    8   15 1    
    24    8   23 1    
    25    9   13 1    
    26    9   24 1    
    27    9   25 1    
    28   10   26 1    
    29   10   27 1    
    30   11   31 1    
    31   11   32 1    
    32   11   33 1    
    33   12   28 1    
    34   12   29 1    
    35   12   30 1    
    36   13   34 1    
    37   13   35 1    
    38   14   36 1    
    39   14   37 1    
    40   14   38 1    
    41   15   39 1    
    42   15   40 1    
    43   15   41 1    
@<TRIPOS>SUBSTRUCTURE
     1 ****        1 TEMP              0 ****  ****    0 ROOT 
@<TRIPOS>NORMAL
@<TRIPOS>FF_PBC
FORCE_FIELD_SETUP_FEATURE Force Field Setup information
v1.0  0 0.000000 0.000000 0.000000 0.000000 0.000000 0.000000 NONE 0 0 0 0 1 0 0 0 0 0 0 0 0
