@<TRIPOS>MOLECULE
MOL005018
   53    57     1     1     0
SMALL
GASTEIGER


@<TRIPOS>ATOM
      1 O           0.911356   -0.811878   -0.104750 O.3       1 <1>        -0.335081 
      2 O           5.651419    0.551455    0.067228 O.3       1 <1>        -0.334125 
      3 O          -5.224720    0.621124   -0.896934 O.3       1 <1>        -0.334209 
      4 O           1.868241   -4.747132    0.105043 O.2       1 <1>        -0.291871 
      5 C           0.066539   -1.786555   -0.744901 C.3       1 <1>         0.097202 
      6 C           0.135767   -3.139148    0.003828 C.3       1 <1>         0.041477 
      7 C           2.263779   -1.152034   -0.001199 C.ar      1 <1>         0.097012 
      8 C          -1.367383   -1.242795   -0.757019 C.ar      1 <1>        -0.017263 
      9 C           5.338855    1.958306    0.046297 C.3       1 <1>         0.088837 
     10 C           3.300186   -0.090611   -0.003466 C.ar      1 <1>         0.035456 
     11 C           2.648367   -2.500534    0.102599 C.ar      1 <1>         0.048186 
     12 C           1.574147   -3.563874    0.074039 C.2       1 <1>         0.168447 
     13 C          -5.995727    0.847715    0.299649 C.3       1 <1>         0.088835 
     14 C           4.657492   -0.427393    0.099954 C.ar      1 <1>         0.086906 
     15 C          -3.270228   -0.063599    0.368061 C.ar      1 <1>         0.005134 
     16 C          -1.913219   -0.663932    0.398912 C.ar      1 <1>        -0.046470 
     17 C          -4.002517   -0.048965   -0.821686 C.ar      1 <1>         0.084414 
     18 C           3.871994    2.295744   -0.104826 C.2       1 <1>        -0.051917 
     19 C           2.915309    1.363773   -0.129171 C.2       1 <1>        -0.050875 
     20 C          -2.186436   -1.306430   -1.993767 C.ar      1 <1>        -0.053617 
     21 C           4.082174   -2.856981    0.230623 C.ar      1 <1>        -0.046300 
     22 C           5.051565   -1.849066    0.233368 C.ar      1 <1>        -0.030235 
     23 C          -5.152006    0.979053    1.550256 C.2       1 <1>        -0.051997 
     24 C           6.113202    2.543521   -1.162363 C.3       1 <1>        -0.031936 
     25 C           5.855533    2.560569    1.377503 C.3       1 <1>        -0.031936 
     26 C          -3.460180   -0.725641   -2.022334 C.ar      1 <1>        -0.030722 
     27 C          -3.883987    0.559409    1.599568 C.2       1 <1>        -0.053368 
     28 C          -6.993105   -0.326878    0.471788 C.3       1 <1>        -0.031936 
     29 C          -6.750832    2.180941    0.057965 C.3       1 <1>        -0.031936 
     30 H           0.417732   -1.915337   -1.783111 H         1 <1>         0.065572 
     31 H          -0.464122   -3.896432   -0.527946 H         1 <1>         0.037398 
     32 H          -0.248399   -3.032714    1.028955 H         1 <1>         0.037398 
     33 H          -1.334778   -0.634352    1.315198 H         1 <1>         0.062777 
     34 H           3.587885    3.344697   -0.195237 H         1 <1>         0.060053 
     35 H           1.865481    1.638117   -0.237916 H         1 <1>         0.062283 
     36 H          -1.801645   -1.804147   -2.877360 H         1 <1>         0.062190 
     37 H           4.378118   -3.897174    0.324586 H         1 <1>         0.062610 
     38 H           6.102871   -2.098234    0.331584 H         1 <1>         0.064368 
     39 H          -5.594162    1.418125    2.445532 H         1 <1>         0.060052 
     40 H           5.995358    3.636368   -1.219440 H         1 <1>         0.026052 
     41 H           5.729165    2.094837   -2.092158 H         1 <1>         0.026052 
     42 H           7.185132    2.305957   -1.078562 H         1 <1>         0.026052 
     43 H           5.720333    3.652731    1.393810 H         1 <1>         0.026052 
     44 H           5.302464    2.120482    2.221453 H         1 <1>         0.026052 
     45 H           6.925454    2.335726    1.505754 H         1 <1>         0.026052 
     46 H          -4.061661   -0.769969   -2.923588 H         1 <1>         0.064356 
     47 H          -3.298270    0.653136    2.514065 H         1 <1>         0.062202 
     48 H          -6.450179   -1.272366    0.620987 H         1 <1>         0.026052 
     49 H          -7.619175   -0.424141   -0.428550 H         1 <1>         0.026052 
     50 H          -7.649488   -0.154562    1.339209 H         1 <1>         0.026052 
     51 H          -7.343498    2.123067   -0.867551 H         1 <1>         0.026052 
     52 H          -6.024020    3.001756   -0.049684 H         1 <1>         0.026052 
     53 H          -7.425685    2.417464    0.895602 H         1 <1>         0.026052 
@<TRIPOS>BOND
     1    5    1 1    
     2    1    7 1    
     3    2    9 1    
     4   14    2 1    
     5    3   13 1    
     6   17    3 1    
     7   12    4 2    
     8    5    6 1    
     9    8    5 1    
    10    5   30 1    
    11    6   12 1    
    12    6   31 1    
    13    6   32 1    
    14    7   10 1    
    15    7   11 2    
    16   16    8 2    
    17    8   20 1    
    18    9   18 1    
    19    9   24 1    
    20    9   25 1    
    21   10   14 2    
    22   10   19 1    
    23   12   11 1    
    24   11   21 1    
    25   13   23 1    
    26   13   28 1    
    27   13   29 1    
    28   14   22 1    
    29   15   16 1    
    30   15   17 2    
    31   15   27 1    
    32   16   33 1    
    33   17   26 1    
    34   18   19 2    
    35   18   34 1    
    36   19   35 1    
    37   20   26 2    
    38   20   36 1    
    39   21   22 2    
    40   21   37 1    
    41   22   38 1    
    42   23   27 2    
    43   23   39 1    
    44   24   40 1    
    45   24   41 1    
    46   24   42 1    
    47   25   43 1    
    48   25   44 1    
    49   25   45 1    
    50   26   46 1    
    51   27   47 1    
    52   28   48 1    
    53   28   49 1    
    54   28   50 1    
    55   29   51 1    
    56   29   52 1    
    57   29   53 1    
@<TRIPOS>SUBSTRUCTURE
     1 ****        1 TEMP              0 ****  ****    0 ROOT 
@<TRIPOS>NORMAL
@<TRIPOS>FF_PBC
FORCE_FIELD_SETUP_FEATURE Force Field Setup information
v1.0  0 0.000000 0.000000 0.000000 0.000000 0.000000 0.000000 NONE 0 0 0 0 1 0 0 0 0 0 0 0 0
