@<TRIPOS>MOLECULE
MOL004834
   34    36     1     1     0
SMALL
GASTEIGER


@<TRIPOS>ATOM
      1 C          -5.439637   -0.343537   -0.343084 C.ar      1 <1>         0.075062 
      2 C          -4.960278    1.023076   -0.677342 C.ar      1 <1>        -0.031221 
      3 C          -3.585948    1.281221   -0.768975 C.ar      1 <1>        -0.049688 
      4 C          -2.619940    0.180039   -0.537209 C.ar      1 <1>         0.005486 
      5 C          -3.067862   -1.104995   -0.210848 C.ar      1 <1>         0.086168 
      6 C          -4.519132   -1.375405   -0.117392 C.ar      1 <1>        -0.001316 
      7 C          -1.130004    0.396598   -0.646334 C.2       1 <1>        -0.046101 
      8 C          -0.315167   -0.520102   -0.115864 C.2       1 <1>        -0.011193 
      9 C          -0.914131   -1.702587    0.601178 C.3       1 <1>         0.079912 
     10 O          -2.151897   -2.134393    0.010913 O.3       1 <1>        -0.339419 
     11 C           1.187360   -0.348354   -0.201346 C.ar      1 <1>         0.010251 
     12 C           2.056932   -1.409187   -0.766915 C.ar      1 <1>        -0.049363 
     13 C           3.443177   -1.225636   -0.817178 C.ar      1 <1>        -0.030964 
     14 C           4.051738    0.025250   -0.306266 C.ar      1 <1>         0.078286 
     15 C           3.223977    1.040010    0.191988 C.ar      1 <1>        -0.001333 
     16 C           1.756020    0.838795    0.269650 C.ar      1 <1>         0.082476 
     17 O          -6.803455   -0.615700   -0.250727 O.3       1 <1>        -0.359749 
     18 O           0.934097    1.823733    0.821376 O.3       1 <1>        -0.359152 
     19 O           5.444401    0.162919   -0.330595 O.3       1 <1>        -0.347829 
     20 C           6.088088    0.818411    0.778727 C.3       1 <1>         0.043027 
     21 H          -5.670253    1.824752   -0.852062 H         1 <1>         0.064340 
     22 H          -3.227966    2.277127   -1.000680 H         1 <1>         0.062503 
     23 H          -4.867901   -2.373703    0.123244 H         1 <1>         0.066928 
     24 H          -0.754093    1.286724   -1.146523 H         1 <1>         0.062787 
     25 H          -1.096521   -1.387385    1.640587 H         1 <1>         0.061528 
     26 H          -0.228504   -2.562277    0.608529 H         1 <1>         0.061528 
     27 H           1.625174   -2.329153   -1.144924 H         1 <1>         0.062512 
     28 H           4.087016   -1.996837   -1.228224 H         1 <1>         0.064348 
     29 H           3.638934    1.980407    0.528861 H         1 <1>         0.066928 
     30 H          -7.334581    0.165152   -0.143133 H         1 <1>         0.217315 
     31 H           1.410404    2.418554    1.389566 H         1 <1>         0.217339 
     32 H           7.169040    0.629419    0.697254 H         1 <1>         0.052870 
     33 H           5.732325    0.407413    1.737927 H         1 <1>         0.052870 
     34 H           5.935894    1.908525    0.757234 H         1 <1>         0.052870 
@<TRIPOS>BOND
     1    1    2 1    
     2    1    6 2    
     3    1   17 1    
     4    2    3 2    
     5    2   21 1    
     6    3    4 1    
     7    3   22 1    
     8    4    5 2    
     9    4    7 1    
    10    5    6 1    
    11    5   10 1    
    12    6   23 1    
    13    7    8 2    
    14    7   24 1    
    15    8    9 1    
    16    8   11 1    
    17    9   10 1    
    18    9   25 1    
    19    9   26 1    
    20   11   12 1    
    21   11   16 2    
    22   12   13 2    
    23   12   27 1    
    24   13   14 1    
    25   13   28 1    
    26   14   15 2    
    27   14   19 1    
    28   15   16 1    
    29   15   29 1    
    30   16   18 1    
    31   17   30 1    
    32   18   31 1    
    33   19   20 1    
    34   20   32 1    
    35   20   33 1    
    36   20   34 1    
@<TRIPOS>SUBSTRUCTURE
     1 ****        1 TEMP              0 ****  ****    0 ROOT 
@<TRIPOS>NORMAL
@<TRIPOS>FF_PBC
FORCE_FIELD_SETUP_FEATURE Force Field Setup information
v1.0  0 0.000000 0.000000 0.000000 0.000000 0.000000 0.000000 NONE 0 0 0 0 1 0 0 0 0 0 0 0 0
