@<TRIPOS>MOLECULE
MOL004900
  120   126     1     1     0
SMALL
GASTEIGER


@<TRIPOS>ATOM
      1 C          22.212962  -33.911163   -0.410595 C.3       1 <1>         0.056847 
      2 C          23.624001  -33.127761   -0.349593 C.3       1 <1>        -0.037508 
      3 C          23.642597  -31.571939   -0.721444 C.3       1 <1>        -0.042931 
      4 C          22.936915  -30.665021    0.369454 C.3       1 <1>        -0.010415 
      5 C          21.489900  -31.190390   -0.119928 C.2       1 <1>        -0.058942 
      6 C          21.276896  -32.715429   -0.162219 C.3       1 <1>        -0.016210 
      7 C          22.712728  -29.102351    0.414939 C.3       1 <1>        -0.043091 
      8 C          21.357513  -28.327523    0.472959 C.3       1 <1>        -0.042314 
      9 C          20.208399  -28.921674   -0.461851 C.3       1 <1>        -0.001120 
     10 C          20.443572  -30.458572   -0.577928 C.2       1 <1>        -0.041412 
     11 C          18.654728  -28.736443    0.003861 C.3       1 <1>        -0.015931 
     12 C          17.508821  -29.794071   -0.463800 C.3       1 <1>        -0.010742 
     13 C          18.002214  -31.048299   -1.120677 C.2       1 <1>        -0.079573 
     14 C          19.309481  -31.193082   -1.276105 C.2       1 <1>        -0.061683 
     15 C          18.096548  -27.426525   -0.624648 C.3       1 <1>        -0.045984 
     16 C          16.706324  -27.050366   -0.109094 C.3       1 <1>        -0.048508 
     17 C          15.612450  -28.145141   -0.075577 C.3       1 <1>        -0.025206 
     18 C          15.986152  -29.684594    0.076656 C.3       1 <1>        -0.021728 
     19 C          14.182742  -27.520178    0.246809 C.3       1 <1>         0.020641 
     20 C          13.308176  -28.233494   -0.869794 C.3       1 <1>         0.069511 
     21 C          13.422980  -29.793179   -0.786686 C.3       1 <1>        -0.025376 
     22 C          14.869007  -30.428707   -0.811023 C.3       1 <1>        -0.044437 
     23 O          23.797598  -35.845044   -0.037548 O.3       1 <1>        -0.330850 
     24 C          21.164602  -35.142478   -0.161530 C.3       1 <1>        -0.050202 
     25 C          22.961780  -34.929789    0.514723 C.2       1 <1>         0.265846 
     26 O          22.849804  -34.910246    1.733125 O.2       1 <1>        -0.264556 
     27 C          16.002272  -30.358082    1.516037 C.3       1 <1>        -0.058735 
     28 C          18.568109  -28.570080    1.556840 C.3       1 <1>        -0.058208 
     29 C          20.501015  -28.128537   -1.801227 C.3       1 <1>        -0.055018 
     30 C          24.155010  -30.637484    1.483821 C.3       1 <1>        -0.055823 
     31 C          14.102408  -25.903196    0.229175 C.3       1 <1>         0.052209 
     32 C          13.606845  -27.932927    1.655726 C.3       1 <1>        -0.054821 
     33 O          11.983706  -27.852886   -1.315738 O.3       1 <1>        -0.344781 
     34 C           8.840251  -28.253811   -1.301807 C.3       1 <1>         0.119040 
     35 C           9.350012  -28.402239    0.159052 C.3       1 <1>         0.174377 
     36 O          10.460508  -27.595137    0.554633 O.3       1 <1>        -0.332678 
     37 C          11.166447  -26.985995   -0.520335 C.3       1 <1>         0.189108 
     38 C          10.279390  -26.099326   -1.424387 C.3       1 <1>         0.140651 
     39 C           9.090904  -26.906439   -2.029154 C.3       1 <1>         0.114864 
     40 C           9.637810  -29.835152    0.522849 C.2       1 <1>         0.291467 
     41 O           8.843220  -30.738069   -0.039982 O.3       1 <1>        -0.329249 
     42 O          10.517470  -30.151927    1.304997 O.2       1 <1>        -0.262180 
     43 O           7.411710  -28.522152   -1.319040 O.3       1 <1>        -0.386033 
     44 O           9.182368  -27.094305   -3.456855 O.3       1 <1>        -0.386378 
     45 C           8.598480  -23.709235    1.282642 C.3       1 <1>         0.174377 
     46 O          10.053475  -23.761684    1.206293 O.3       1 <1>        -0.332684 
     47 C          10.531720  -23.997283   -0.121054 C.3       1 <1>         0.189056 
     48 C          10.387483  -22.651905   -0.872034 C.3       1 <1>         0.134152 
     49 C           8.985841  -22.020998   -0.599266 C.3       1 <1>         0.114497 
     50 C           7.977442  -23.020398    0.028629 C.3       1 <1>         0.119030 
     51 C           7.675032  -24.907866    1.563168 C.2       1 <1>         0.291467 
     52 O           7.303793  -26.143337    1.919494 O.3       1 <1>        -0.329249 
     53 O           8.722441  -25.491329    1.876007 O.2       1 <1>        -0.262180 
     54 O           9.673838  -25.045292   -0.642933 O.3       1 <1>        -0.337745 
     55 O           9.082490  -20.841466    0.218308 O.3       1 <1>        -0.386388 
     56 O           6.764846  -22.362028    0.438080 O.3       1 <1>        -0.386033 
     57 O          11.437577  -21.770138   -0.401071 O.3       1 <1>        -0.384104 
     58 O          15.123735  -24.883109    0.144589 O.3       1 <1>        -0.394374 
     59 H          24.037617  -33.032200    0.658026 H         1 <1>         0.027568 
     60 H          24.429552  -33.589977   -0.953894 H         1 <1>         0.027568 
     61 H          24.703047  -31.312889   -0.849438 H         1 <1>         0.027386 
     62 H          23.251183  -31.400492   -1.729917 H         1 <1>         0.027386 
     63 H          20.315731  -32.898441    0.332068 H         1 <1>         0.032046 
     64 H          21.173321  -32.827904   -1.243252 H         1 <1>         0.032046 
     65 H          22.197201  -29.650866    1.252029 H         1 <1>         0.027384 
     66 H          22.807309  -29.217725   -0.679660 H         1 <1>         0.027384 
     67 H          21.067560  -28.016308    1.482446 H         1 <1>         0.027410 
     68 H          21.686491  -27.320131    0.239666 H         1 <1>         0.027410 
     69 H          17.333113  -29.532858   -1.523129 H         1 <1>         0.035395 
     70 H          17.253212  -31.754025   -1.547588 H         1 <1>         0.057525 
     71 H          19.412216  -31.984762   -2.032497 H         1 <1>         0.061744 
     72 H          18.672986  -26.523357   -0.390254 H         1 <1>         0.027105 
     73 H          18.008959  -27.493990   -1.717607 H         1 <1>         0.027105 
     74 H          16.839107  -26.578016    0.867449 H         1 <1>         0.026847 
     75 H          16.444839  -26.258282   -0.845300 H         1 <1>         0.026847 
     76 H          15.646591  -28.189113   -1.172287 H         1 <1>         0.031301 
     77 H          13.714658  -27.956817   -1.854640 H         1 <1>         0.060308 
     78 H          12.927138  -30.151062    0.109789 H         1 <1>         0.029048 
     79 H          12.826107  -30.257662   -1.580181 H         1 <1>         0.029048 
     80 H          14.749779  -31.512447   -0.587417 H         1 <1>         0.027158 
     81 H          15.211207  -30.432146   -1.861812 H         1 <1>         0.027158 
     82 H          23.979640  -35.809913   -0.980580 H         1 <1>         0.220226 
     83 H          21.333027  -36.214734   -0.416661 H         1 <1>         0.023996 
     84 H          20.294960  -34.937743   -0.804461 H         1 <1>         0.023996 
     85 H          20.658143  -35.126784    0.838118 H         1 <1>         0.023996 
     86 H          15.705359  -29.732078    2.363406 H         1 <1>         0.023534 
     87 H          15.388930  -31.264474    1.619358 H         1 <1>         0.023534 
     88 H          16.997245  -30.738530    1.778702 H         1 <1>         0.023534 
     89 H          17.581638  -28.385670    1.927469 H         1 <1>         0.023552 
     90 H          19.018324  -27.639471    1.882091 H         1 <1>         0.023552 
     91 H          18.953539  -29.389868    2.169398 H         1 <1>         0.023552 
     92 H          21.513555  -28.234623   -2.174850 H         1 <1>         0.023838 
     93 H          20.459554  -27.039041   -1.704901 H         1 <1>         0.023838 
     94 H          19.877382  -28.299151   -2.669460 H         1 <1>         0.023838 
     95 H          24.760743  -31.480598    1.800372 H         1 <1>         0.023812 
     96 H          23.946747  -30.123760    2.429000 H         1 <1>         0.023812 
     97 H          24.940243  -29.997707    1.044398 H         1 <1>         0.023812 
     98 H          13.653341  -25.610144   -0.729804 H         1 <1>         0.056334 
     99 H          13.522166  -25.485481    1.073258 H         1 <1>         0.056334 
    100 H          13.434076  -28.984892    1.880549 H         1 <1>         0.023667 
    101 H          14.242933  -27.564685    2.458788 H         1 <1>         0.023667 
    102 H          12.621695  -27.520194    1.863831 H         1 <1>         0.023667 
    103 H           9.420407  -28.993224   -1.867694 H         1 <1>         0.065129 
    104 H           8.568214  -28.084357    0.863480 H         1 <1>         0.072940 
    105 H          11.732034  -26.332482    0.098879 H         1 <1>         0.093773 
    106 H          10.846017  -25.736134   -2.288342 H         1 <1>         0.067477 
    107 H           8.186890  -26.286830   -1.879723 H         1 <1>         0.064781 
    108 H           8.949757  -31.610418    0.320707 H         1 <1>         0.220293 
    109 H           6.870483  -27.840806   -0.910616 H         1 <1>         0.210020 
    110 H           8.458737  -27.566205   -3.868773 H         1 <1>         0.210005 
    111 H           8.465404  -23.051449    2.152026 H         1 <1>         0.072940 
    112 H          11.614930  -24.174532   -0.011002 H         1 <1>         0.093767 
    113 H          10.538428  -22.875101   -1.936950 H         1 <1>         0.067096 
    114 H           8.562641  -21.676551   -1.555845 H         1 <1>         0.064771 
    115 H           7.700543  -23.771735   -0.733929 H         1 <1>         0.065129 
    116 H           6.353030  -26.190401    1.891378 H         1 <1>         0.220293 
    117 H           9.478071  -21.023838    1.069142 H         1 <1>         0.210005 
    118 H           6.337277  -21.881620   -0.263686 H         1 <1>         0.210020 
    119 H          11.415620  -20.894726   -0.774818 H         1 <1>         0.210110 
    120 H          15.750507  -24.715689    0.837699 H         1 <1>         0.209420 
@<TRIPOS>BOND
     1    1    2 1    
     2    6    1 1    
     3    1   24 1    
     4    1   25 1    
     5    3    2 1    
     6    2   59 1    
     7    2   60 1    
     8    4    3 1    
     9    3   61 1    
    10    3   62 1    
    11    5    4 1    
    12    7    4 1    
    13    4   30 1    
    14    5    6 1    
    15   10    5 2    
    16    6   63 1    
    17    6   64 1    
    18    8    7 1    
    19    7   65 1    
    20    7   66 1    
    21    9    8 1    
    22    8   67 1    
    23    8   68 1    
    24    9   10 1    
    25   11    9 1    
    26    9   29 1    
    27   14   10 1    
    28   12   11 1    
    29   15   11 1    
    30   11   28 1    
    31   12   13 1    
    32   18   12 1    
    33   12   69 1    
    34   13   14 2    
    35   13   70 1    
    36   14   71 1    
    37   16   15 1    
    38   15   72 1    
    39   15   73 1    
    40   17   16 1    
    41   16   74 1    
    42   16   75 1    
    43   17   18 1    
    44   19   17 1    
    45   17   76 1    
    46   22   18 1    
    47   18   27 1    
    48   20   19 1    
    49   19   31 1    
    50   19   32 1    
    51   20   21 1    
    52   33   20 1    
    53   20   77 1    
    54   21   22 1    
    55   21   78 1    
    56   21   79 1    
    57   22   80 1    
    58   22   81 1    
    59   25   23 1    
    60   23   82 1    
    61   24   83 1    
    62   24   84 1    
    63   24   85 1    
    64   25   26 2    
    65   27   86 1    
    66   27   87 1    
    67   27   88 1    
    68   28   89 1    
    69   28   90 1    
    70   28   91 1    
    71   29   92 1    
    72   29   93 1    
    73   29   94 1    
    74   30   95 1    
    75   30   96 1    
    76   30   97 1    
    77   31   58 1    
    78   31   98 1    
    79   31   99 1    
    80   32  100 1    
    81   32  101 1    
    82   32  102 1    
    83   37   33 1    
    84   34   35 1    
    85   39   34 1    
    86   34   43 1    
    87   34  103 1    
    88   36   35 1    
    89   35   40 1    
    90   35  104 1    
    91   37   36 1    
    92   38   37 1    
    93   37  105 1    
    94   38   39 1    
    95   54   38 1    
    96   38  106 1    
    97   39   44 1    
    98   39  107 1    
    99   40   41 1    
   100   40   42 2    
   101   41  108 1    
   102   43  109 1    
   103   44  110 1    
   104   46   45 1    
   105   45   50 1    
   106   45   51 1    
   107   45  111 1    
   108   47   46 1    
   109   47   48 1    
   110   47   54 1    
   111   47  112 1    
   112   48   49 1    
   113   48   57 1    
   114   48  113 1    
   115   49   50 1    
   116   49   55 1    
   117   49  114 1    
   118   50   56 1    
   119   50  115 1    
   120   51   52 1    
   121   51   53 2    
   122   52  116 1    
   123   55  117 1    
   124   56  118 1    
   125   57  119 1    
   126   58  120 1    
@<TRIPOS>SUBSTRUCTURE
     1 ****       45 TEMP              0 ****  ****    0 ROOT 
@<TRIPOS>NORMAL
@<TRIPOS>FF_PBC
FORCE_FIELD_SETUP_FEATURE Force Field Setup information
v1.0  0 0.000000 0.000000 0.000000 0.000000 0.000000 0.000000 NONE 0 0 0 0 1 0 0 0 0 0 0 0 0
