@<TRIPOS>MOLECULE
MOL004727
   39    40     1     1     0
SMALL
GASTEIGER


@<TRIPOS>ATOM
      1 C          -0.672770   -2.441919    0.474220 C.3       1 <1>        -0.043327 
      2 C          -1.212685   -3.196317    1.726619 C.3       1 <1>        -0.062396 
      3 C          -1.238575   -3.139406   -0.800515 C.3       1 <1>        -0.062396 
      4 C          -1.022659   -0.908683    0.519279 C.3       1 <1>        -0.031605 
      5 C          -0.457016   -0.076866   -0.673711 C.3       1 <1>        -0.013085 
      6 C          -0.571117   -0.177806    1.815086 C.3       1 <1>        -0.045733 
      7 C           1.099700    0.017525   -0.644159 C.3       1 <1>        -0.013345 
      8 C          -1.099866    1.292440   -0.753801 C.2       1 <1>        -0.081098 
      9 C           0.970393   -0.181493    1.943026 C.3       1 <1>        -0.031437 
     10 C           1.669133    0.388017    0.722889 C.2       1 <1>        -0.072943 
     11 C           1.511830    0.948481   -1.819821 C.3       1 <1>        -0.042294 
     12 C          -0.461026    2.401860   -1.152165 C.2       1 <1>        -0.076221 
     13 C           2.760833    1.149739    0.898237 C.2       1 <1>        -0.099165 
     14 C           0.985913    2.387320   -1.580424 C.3       1 <1>        -0.031439 
     15 C          -1.144981    3.750630   -1.197920 C.3       1 <1>        -0.043778 
     16 H          -0.782287   -0.539354   -1.616588 H         1 <1>         0.035152 
     17 H           1.509014   -0.979879   -0.870784 H         1 <1>         0.035136 
     18 H           0.416483   -2.599258    0.454769 H         1 <1>         0.029832 
     19 H          -0.687138   -2.891686    2.643031 H         1 <1>         0.023242 
     20 H          -1.063028   -4.282806    1.629635 H         1 <1>         0.023242 
     21 H          -2.289826   -3.007647    1.852214 H         1 <1>         0.023242 
     22 H          -0.728096   -2.804993   -1.714714 H         1 <1>         0.023242 
     23 H          -1.094482   -4.229789   -0.749206 H         1 <1>         0.023242 
     24 H          -2.316604   -2.941422   -0.900829 H         1 <1>         0.023242 
     25 H          -2.124497   -0.855517    0.485608 H         1 <1>         0.030917 
     26 H          -1.033688   -0.618630    2.711003 H         1 <1>         0.027122 
     27 H          -0.902845    0.873166    1.790072 H         1 <1>         0.027122 
     28 H          -2.152282    1.369226   -0.478729 H         1 <1>         0.057459 
     29 H           1.225175    0.384425    2.854610 H         1 <1>         0.031008 
     30 H           1.336934   -1.206655    2.095809 H         1 <1>         0.031008 
     31 H           2.600339    0.949533   -1.986306 H         1 <1>         0.027417 
     32 H           1.058759    0.567360   -2.750918 H         1 <1>         0.027417 
     33 H           3.133442    1.381124    1.895573 H         1 <1>         0.053449 
     34 H           3.353378    1.575442    0.093399 H         1 <1>         0.053449 
     35 H           1.106922    2.963044   -2.512542 H         1 <1>         0.031008 
     36 H           1.560229    2.899618   -0.795495 H         1 <1>         0.031008 
     37 H          -2.180075    3.718900   -0.825636 H         1 <1>         0.027436 
     38 H          -1.164979    4.118446   -2.234712 H         1 <1>         0.027436 
     39 H          -0.582072    4.466010   -0.579706 H         1 <1>         0.027436 
@<TRIPOS>BOND
     1    1    2 1    
     2    1    3 1    
     3    1    4 1    
     4    1   18 1    
     5    2   19 1    
     6    2   20 1    
     7    2   21 1    
     8    3   22 1    
     9    3   23 1    
    10    3   24 1    
    11    4    5 1    
    12    4    6 1    
    13    4   25 1    
    14    5    7 1    
    15    5    8 1    
    16    5   16 1    
    17    6    9 1    
    18    6   26 1    
    19    6   27 1    
    20    7   10 1    
    21    7   11 1    
    22    7   17 1    
    23    8   12 2    
    24    8   28 1    
    25    9   10 1    
    26    9   29 1    
    27    9   30 1    
    28   10   13 2    
    29   11   14 1    
    30   11   31 1    
    31   11   32 1    
    32   12   14 1    
    33   12   15 1    
    34   13   33 1    
    35   13   34 1    
    36   14   35 1    
    37   14   36 1    
    38   15   37 1    
    39   15   38 1    
    40   15   39 1    
@<TRIPOS>SUBSTRUCTURE
     1 ****        1 TEMP              0 ****  ****    0 ROOT 
@<TRIPOS>NORMAL
@<TRIPOS>FF_PBC
FORCE_FIELD_SETUP_FEATURE Force Field Setup information
v1.0  0 0.000000 0.000000 0.000000 0.000000 0.000000 0.000000 NONE 0 0 0 0 1 0 0 0 0 0 0 0 0
