@<TRIPOS>MOLECULE
MOL006292
   39    40     1     1     0
SMALL
GASTEIGER


@<TRIPOS>ATOM
      1 C           1.109317   -1.041488   -0.057181 C.3       1 <1>        -0.006787 
      2 C           2.491441   -1.453001    0.536047 C.3       1 <1>        -0.043320 
      3 C          -0.002732   -1.648366    0.848726 C.3       1 <1>        -0.039908 
      4 C           0.901840    0.458846   -0.043702 C.2       1 <1>        -0.042494 
      5 C           3.633772   -0.583828   -0.035066 C.3       1 <1>        -0.048563 
      6 C          -1.432749   -1.316872    0.348778 C.3       1 <1>        -0.030403 
      7 C           1.916363    1.325695    0.140140 C.2       1 <1>        -0.068925 
      8 C           3.355356    0.892627    0.330559 C.3       1 <1>        -0.031412 
      9 C           0.961315   -1.543096   -1.526944 C.3       1 <1>        -0.055529 
     10 C          -1.570532    0.130679   -0.071437 C.2       1 <1>        -0.066670 
     11 C          -0.495069    0.916514   -0.240792 C.2       1 <1>        -0.058607 
     12 C          -2.981467    0.658965   -0.290108 C.3       1 <1>        -0.025262 
     13 C           1.696622    2.824094    0.193054 C.3       1 <1>        -0.043221 
     14 C          -3.912487   -0.343603   -1.025896 C.3       1 <1>        -0.058945 
     15 C          -3.593665    1.086994    1.070383 C.3       1 <1>        -0.058945 
     16 H           2.689828   -2.518305    0.336250 H         1 <1>         0.027376 
     17 H           2.494752   -1.311486    1.629292 H         1 <1>         0.027376 
     18 H           0.101703   -1.222844    1.861483 H         1 <1>         0.027669 
     19 H           0.116121   -2.741709    0.927745 H         1 <1>         0.027669 
     20 H           3.713692   -0.694958   -1.125795 H         1 <1>         0.026857 
     21 H           4.600728   -0.897378    0.394654 H         1 <1>         0.026857 
     22 H          -2.140519   -1.551579    1.159325 H         1 <1>         0.031043 
     23 H          -1.684361   -1.966795   -0.503085 H         1 <1>         0.031043 
     24 H           4.027869    1.527689   -0.269804 H         1 <1>         0.031008 
     25 H           3.594402    1.051825    1.394835 H         1 <1>         0.031008 
     26 H           1.025136   -2.641210   -1.562836 H         1 <1>         0.023821 
     27 H           0.002400   -1.240019   -1.970438 H         1 <1>         0.023821 
     28 H           1.740811   -1.129104   -2.179045 H         1 <1>         0.023821 
     29 H          -0.670972    1.945963   -0.546470 H         1 <1>         0.062012 
     30 H          -2.942297    1.560568   -0.927146 H         1 <1>         0.034035 
     31 H           2.574022    3.350931    0.598768 H         1 <1>         0.027453 
     32 H           0.846633    3.077254    0.844574 H         1 <1>         0.027453 
     33 H           1.509932    3.204219   -0.822446 H         1 <1>         0.027453 
     34 H          -4.102542   -1.239877   -0.416669 H         1 <1>         0.023536 
     35 H          -3.455008   -0.650559   -1.979552 H         1 <1>         0.023536 
     36 H          -4.883187    0.129535   -1.243109 H         1 <1>         0.023536 
     37 H          -2.934040    1.815877    1.567004 H         1 <1>         0.023536 
     38 H          -3.722561    0.221821    1.737085 H         1 <1>         0.023536 
     39 H          -4.578471    1.555483    0.918721 H         1 <1>         0.023536 
@<TRIPOS>BOND
     1    1    2 1    
     2    1    3 1    
     3    1    4 1    
     4    1    9 1    
     5    2    5 1    
     6    2   16 1    
     7    2   17 1    
     8    3    6 1    
     9    3   18 1    
    10    3   19 1    
    11    4    7 2    
    12    4   11 1    
    13    5    8 1    
    14    5   20 1    
    15    5   21 1    
    16    6   10 1    
    17    6   22 1    
    18    6   23 1    
    19    7    8 1    
    20    7   13 1    
    21    8   24 1    
    22    8   25 1    
    23    9   26 1    
    24    9   27 1    
    25    9   28 1    
    26   10   11 2    
    27   10   12 1    
    28   11   29 1    
    29   12   14 1    
    30   12   15 1    
    31   12   30 1    
    32   13   31 1    
    33   13   32 1    
    34   13   33 1    
    35   14   34 1    
    36   14   35 1    
    37   14   36 1    
    38   15   37 1    
    39   15   38 1    
    40   15   39 1    
@<TRIPOS>SUBSTRUCTURE
     1 ****        1 TEMP              0 ****  ****    0 ROOT 
@<TRIPOS>NORMAL
@<TRIPOS>FF_PBC
FORCE_FIELD_SETUP_FEATURE Force Field Setup information
v1.0  0 0.000000 0.000000 0.000000 0.000000 0.000000 0.000000 NONE 0 0 0 0 1 0 0 0 0 0 0 0 0
