@<TRIPOS>MOLECULE
MOL004707
   42    43     1     1     0
SMALL
GASTEIGER


@<TRIPOS>ATOM
      1 O          -1.502882   -2.932675   -0.973960 O.3       1 <1>        -0.388553 
      2 C          -0.081836   -0.960275   -1.108056 C.3       1 <1>        -0.005587 
      3 C           0.026059    0.567758   -0.808171 C.3       1 <1>        -0.014167 
      4 C          -0.801533    1.111582    0.415114 C.3       1 <1>        -0.032002 
      5 C          -1.550606   -1.497193   -1.087672 C.3       1 <1>         0.066683 
      6 C          -2.266143    0.615735    0.211176 C.3       1 <1>        -0.046837 
      7 C          -2.333279   -0.932841    0.131898 C.3       1 <1>        -0.023706 
      8 C           0.923529   -1.742504   -0.224260 C.3       1 <1>        -0.043385 
      9 C          -0.280652    0.913339    1.894304 C.3       1 <1>        -0.043343 
     10 C           1.463686    1.028382   -0.839014 C.2       1 <1>        -0.081307 
     11 C           2.367228   -1.294072   -0.580851 C.3       1 <1>        -0.031637 
     12 C          -2.279533   -1.181373   -2.431558 C.3       1 <1>        -0.035799 
     13 C           2.516910    0.201615   -0.749732 C.2       1 <1>        -0.076238 
     14 C           1.211671    1.315234    2.093031 C.3       1 <1>        -0.062396 
     15 C          -1.115348    1.738113    2.928754 C.3       1 <1>        -0.062396 
     16 C           3.938769    0.714233   -0.808349 C.3       1 <1>        -0.043778 
     17 H          -2.360241   -3.344514   -0.948091 H         1 <1>         0.210159 
     18 H           0.288119   -1.137076   -2.133810 H         1 <1>         0.033419 
     19 H          -0.408752    1.053962   -1.699134 H         1 <1>         0.034935 
     20 H          -0.814239    2.209031    0.291419 H         1 <1>         0.030901 
     21 H          -2.941690    0.964260    1.002154 H         1 <1>         0.026908 
     22 H          -2.673189    1.044189   -0.717282 H         1 <1>         0.026908 
     23 H          -3.388999   -1.241882    0.061700 H         1 <1>         0.029291 
     24 H          -1.930873   -1.384395    1.049409 H         1 <1>         0.029291 
     25 H           0.854017   -2.829179   -0.396303 H         1 <1>         0.027203 
     26 H           0.719422   -1.568175    0.837606 H         1 <1>         0.027203 
     27 H          -0.378541   -0.131206    2.219703 H         1 <1>         0.029832 
     28 H           1.630646    2.101627   -0.942930 H         1 <1>         0.057450 
     29 H           3.052388   -1.657714    0.202218 H         1 <1>         0.031000 
     30 H           2.670834   -1.753770   -1.535505 H         1 <1>         0.031000 
     31 H          -1.802592   -1.744778   -3.248286 H         1 <1>         0.025730 
     32 H          -3.333948   -1.493120   -2.384669 H         1 <1>         0.025730 
     33 H          -2.249046   -0.117232   -2.699346 H         1 <1>         0.025730 
     34 H           1.485764    1.359616    3.158102 H         1 <1>         0.023242 
     35 H           1.885013    0.572330    1.652356 H         1 <1>         0.023242 
     36 H           1.409014    2.303799    1.652034 H         1 <1>         0.023242 
     37 H          -0.678870    1.672991    3.937594 H         1 <1>         0.023242 
     38 H          -2.145876    1.374875    3.035464 H         1 <1>         0.023242 
     39 H          -1.143101    2.800518    2.642464 H         1 <1>         0.023242 
     40 H           4.447451    0.494582    0.142291 H         1 <1>         0.027436 
     41 H           4.477375    0.207931   -1.623471 H         1 <1>         0.027436 
     42 H           3.994816    1.799314   -0.983117 H         1 <1>         0.027436 
@<TRIPOS>BOND
     1    5    1 1    
     2    1   17 1    
     3    2    3 1    
     4    2    5 1    
     5    2    8 1    
     6    2   18 1    
     7    3    4 1    
     8    3   10 1    
     9    3   19 1    
    10    4    6 1    
    11    4    9 1    
    12    4   20 1    
    13    5    7 1    
    14    5   12 1    
    15    6    7 1    
    16    6   21 1    
    17    6   22 1    
    18    7   23 1    
    19    7   24 1    
    20    8   11 1    
    21    8   25 1    
    22    8   26 1    
    23    9   14 1    
    24    9   15 1    
    25    9   27 1    
    26   10   13 2    
    27   10   28 1    
    28   11   13 1    
    29   11   29 1    
    30   11   30 1    
    31   12   31 1    
    32   12   32 1    
    33   12   33 1    
    34   13   16 1    
    35   14   34 1    
    36   14   35 1    
    37   14   36 1    
    38   15   37 1    
    39   15   38 1    
    40   15   39 1    
    41   16   40 1    
    42   16   41 1    
    43   16   42 1    
@<TRIPOS>SUBSTRUCTURE
     1 ****        2 TEMP              0 ****  ****    0 ROOT 
@<TRIPOS>NORMAL
@<TRIPOS>FF_PBC
FORCE_FIELD_SETUP_FEATURE Force Field Setup information
v1.0  0 0.000000 0.000000 0.000000 0.000000 0.000000 0.000000 NONE 0 0 0 0 1 0 0 0 0 0 0 0 0
