@<TRIPOS>MOLECULE
MOL000668
   24    24     1     1     0
SMALL
GASTEIGER


@<TRIPOS>ATOM
      1 C          -1.912560   -0.890781   -0.731206 C.ar      1 <1>         0.332256 
      2 C          -3.271997   -0.949291   -0.855879 C.ar      1 <1>         0.045968 
      3 O          -1.253092   -1.939928   -1.411811 O.2       1 <1>        -0.217786 
      4 C          -1.176436    0.193645    0.060337 C.3       1 <1>         0.063405 
      5 C          -3.544296   -2.130426   -1.685126 C.ar      1 <1>         0.043079 
      6 C          -2.323760   -2.664033   -1.976315 C.ar      1 <1>         0.321492 
      7 C           0.359435   -0.021745    0.007307 C.3       1 <1>        -0.040911 
      8 C           1.113444    1.074570    0.808159 C.3       1 <1>        -0.052731 
      9 C           2.650024    0.855719    0.752784 C.3       1 <1>        -0.055898 
     10 C           3.404888    1.949583    1.552029 C.3       1 <1>        -0.065276 
     11 H          -3.999729   -0.265987   -0.431128 H         1 <1>         0.071019 
     12 H          -1.526626    0.160932    1.104196 H         1 <1>         0.039966 
     13 H          -1.435364    1.174395   -0.369117 H         1 <1>         0.039966 
     14 H          -4.515564   -2.499108   -1.999013 H         1 <1>         0.070722 
     15 H          -2.185144   -3.556155   -2.581269 H         1 <1>         0.175970 
     16 H           0.692810   -0.000227   -1.043640 H         1 <1>         0.027116 
     17 H           0.601692   -1.012155    0.427423 H         1 <1>         0.027116 
     18 H           0.781510    1.054189    1.859417 H         1 <1>         0.026533 
     19 H           0.872577    2.065595    0.389131 H         1 <1>         0.026533 
     20 H           2.989542    0.878622   -0.296265 H         1 <1>         0.026265 
     21 H           2.898475   -0.132796    1.173995 H         1 <1>         0.026265 
     22 H           4.491358    1.775421    1.499512 H         1 <1>         0.022978 
     23 H           3.098844    1.933421    2.609726 H         1 <1>         0.022978 
     24 H           3.190068    2.946641    1.136854 H         1 <1>         0.022978 
@<TRIPOS>BOND
     1    1    2 2    
     2    1    3 1    
     3    1    4 1    
     4    2    5 1    
     5    2   11 1    
     6    3    6 1    
     7    4    7 1    
     8    4   12 1    
     9    4   13 1    
    10    5    6 2    
    11    5   14 1    
    12    6   15 1    
    13    7    8 1    
    14    7   16 1    
    15    7   17 1    
    16    8    9 1    
    17    8   18 1    
    18    8   19 1    
    19    9   10 1    
    20    9   20 1    
    21    9   21 1    
    22   10   22 1    
    23   10   23 1    
    24   10   24 1    
@<TRIPOS>SUBSTRUCTURE
     1 ****        1 TEMP              0 ****  ****    0 ROOT 
@<TRIPOS>NORMAL
@<TRIPOS>FF_PBC
FORCE_FIELD_SETUP_FEATURE Force Field Setup information
v1.0  0 0.000000 0.000000 0.000000 0.000000 0.000000 0.000000 NONE 0 0 0 0 1 0 0 0 0 0 0 0 0
