@<TRIPOS>MOLECULE
MOL005030
   60    59     1     1     0
SMALL
GASTEIGER


@<TRIPOS>ATOM
      1 C          -2.027543    1.704879   -0.184616 C.3       1 <1>        -0.052779 
      2 C          -0.661180    2.435246   -0.072127 C.3       1 <1>        -0.049616 
      3 C          -3.211456    2.691286    0.008094 C.3       1 <1>        -0.053048 
      4 C           0.521559    1.469122   -0.352717 C.3       1 <1>        -0.034761 
      5 C          -4.575756    1.952088   -0.056254 C.3       1 <1>        -0.053057 
      6 C           1.852915    2.159105   -0.157357 C.2       1 <1>        -0.087932 
      7 C          -5.761101    2.950857    0.044876 C.3       1 <1>        -0.053045 
      8 C           2.992894    1.531716    0.168021 C.2       1 <1>        -0.087932 
      9 C          -7.127396    2.213967   -0.000260 C.3       1 <1>        -0.052596 
     10 C           3.122529    0.036088    0.353021 C.3       1 <1>        -0.034761 
     11 C          -8.311535    3.218621    0.042514 C.3       1 <1>        -0.044061 
     12 C           4.570490   -0.451517    0.072662 C.3       1 <1>        -0.049616 
     13 C          -9.677528    2.482087    0.009470 C.3       1 <1>         0.033006 
     14 C           4.682555   -1.997743    0.185152 C.3       1 <1>        -0.052779 
     15 C         -10.850214    3.428310    0.028383 C.2       1 <1>         0.259588 
     16 C           6.148040   -2.476540   -0.009343 C.3       1 <1>        -0.053048 
     17 O         -12.051755    2.846846    0.004327 O.3       1 <1>        -0.331267 
     18 O         -10.713122    4.640997    0.062607 O.2       1 <1>        -0.265177 
     19 C           6.256328   -4.025005    0.059608 C.3       1 <1>        -0.053065 
     20 C           7.732585   -4.496414   -0.047938 C.3       1 <1>        -0.053306 
     21 C           7.835813   -6.045414   -0.003152 C.3       1 <1>        -0.055911 
     22 C           9.312317   -6.516884   -0.065907 C.3       1 <1>        -0.065276 
     23 H          -2.107403    1.232659   -1.177736 H         1 <1>         0.026538 
     24 H          -2.081991    0.913273    0.581109 H         1 <1>         0.026538 
     25 H          -0.555676    2.855262    0.942142 H         1 <1>         0.026822 
     26 H          -0.629094    3.266292   -0.796396 H         1 <1>         0.026822 
     27 H          -3.117069    3.197380    0.983553 H         1 <1>         0.026529 
     28 H          -3.172941    3.458567   -0.783046 H         1 <1>         0.026529 
     29 H           0.463767    1.109530   -1.392769 H         1 <1>         0.030732 
     30 H           0.429143    0.606495    0.326037 H         1 <1>         0.030732 
     31 H          -4.647412    1.399258   -1.007929 H         1 <1>         0.026528 
     32 H          -4.634268    1.224123    0.770296 H         1 <1>         0.026528 
     33 H           1.884878    3.242343   -0.292181 H         1 <1>         0.056896 
     34 H          -5.683310    3.519200    0.986364 H         1 <1>         0.026529 
     35 H          -5.704674    3.663049   -0.795116 H         1 <1>         0.026529 
     36 H           3.889037    2.138926    0.310665 H         1 <1>         0.056896 
     37 H          -7.190085    1.618430   -0.926210 H         1 <1>         0.026540 
     38 H          -7.196931    1.526391    0.858596 H         1 <1>         0.026540 
     39 H           2.847752   -0.208803    1.391581 H         1 <1>         0.030732 
     40 H           2.442854   -0.498882   -0.328757 H         1 <1>         0.030732 
     41 H          -8.249453    3.824581    0.961620 H         1 <1>         0.027004 
     42 H          -8.247982    3.897443   -0.824399 H         1 <1>         0.027004 
     43 H           4.869425   -0.137901   -0.941454 H         1 <1>         0.026822 
     44 H           5.256104    0.019147    0.797272 H         1 <1>         0.026822 
     45 H          -9.747711    1.871449   -0.904277 H         1 <1>         0.036600 
     46 H          -9.760187    1.816048    0.882372 H         1 <1>         0.036600 
     47 H           4.325754   -2.316983    1.178484 H         1 <1>         0.026538 
     48 H           4.039491   -2.466048   -0.578096 H         1 <1>         0.026538 
     49 H           6.521348   -2.130060   -0.987115 H         1 <1>         0.026529 
     50 H           6.778111   -2.031325    0.778276 H         1 <1>         0.026529 
     51 H         -12.754655    3.487122    0.016859 H         1 <1>         0.220208 
     52 H           5.833415   -4.378917    1.013884 H         1 <1>         0.026528 
     53 H           5.669017   -4.467137   -0.762002 H         1 <1>         0.026528 
     54 H           8.168439   -4.129754   -0.991751 H         1 <1>         0.026520 
     55 H           8.311408   -4.070323    0.788159 H         1 <1>         0.026520 
     56 H           7.380155   -6.420367    0.929003 H         1 <1>         0.026265 
     57 H           7.282779   -6.476220   -0.854422 H         1 <1>         0.026265 
     58 H           9.360236   -7.617107   -0.042093 H         1 <1>         0.022978 
     59 H           9.790023   -6.165238   -0.993900 H         1 <1>         0.022978 
     60 H           9.878368   -6.123693    0.793814 H         1 <1>         0.022978 
@<TRIPOS>BOND
     1    1    2 1    
     2    1    3 1    
     3    1   23 1    
     4    1   24 1    
     5    2    4 1    
     6    2   25 1    
     7    2   26 1    
     8    3    5 1    
     9    3   27 1    
    10    3   28 1    
    11    4    6 1    
    12    4   29 1    
    13    4   30 1    
    14    5    7 1    
    15    5   31 1    
    16    5   32 1    
    17    6    8 2    
    18    6   33 1    
    19    7    9 1    
    20    7   34 1    
    21    7   35 1    
    22    8   10 1    
    23    8   36 1    
    24    9   11 1    
    25    9   37 1    
    26    9   38 1    
    27   10   12 1    
    28   10   39 1    
    29   10   40 1    
    30   11   13 1    
    31   11   41 1    
    32   11   42 1    
    33   12   14 1    
    34   12   43 1    
    35   12   44 1    
    36   13   15 1    
    37   13   45 1    
    38   13   46 1    
    39   14   16 1    
    40   14   47 1    
    41   14   48 1    
    42   15   17 1    
    43   15   18 2    
    44   16   19 1    
    45   16   49 1    
    46   16   50 1    
    47   17   51 1    
    48   19   20 1    
    49   19   52 1    
    50   19   53 1    
    51   20   21 1    
    52   20   54 1    
    53   20   55 1    
    54   21   22 1    
    55   21   56 1    
    56   21   57 1    
    57   22   58 1    
    58   22   59 1    
    59   22   60 1    
@<TRIPOS>SUBSTRUCTURE
     1 ****        1 TEMP              0 ****  ****    0 ROOT 
@<TRIPOS>NORMAL
@<TRIPOS>FF_PBC
FORCE_FIELD_SETUP_FEATURE Force Field Setup information
v1.0  0 0.000000 0.000000 0.000000 0.000000 0.000000 0.000000 NONE 0 0 0 0 1 0 0 0 0 0 0 0 0
