@<TRIPOS>MOLECULE
MOL001608
   39    39     1     1     0
SMALL
GASTEIGER


@<TRIPOS>ATOM
      1 C          -1.034788    0.927444   -0.167052 C.3       1 <1>         0.006706 
      2 C           0.453829    1.043183   -0.391223 C.2       1 <1>        -0.076628 
      3 C           1.315508    0.015391   -0.345482 C.2       1 <1>        -0.070261 
      4 C           0.865739   -1.400399   -0.054434 C.3       1 <1>        -0.030677 
      5 C          -0.581298   -1.487521    0.497825 C.3       1 <1>        -0.039653 
      6 C          -1.553502   -0.543410   -0.260373 C.3       1 <1>        -0.004124 
      7 C           2.801573    0.237622   -0.584150 C.3       1 <1>        -0.025545 
      8 C           3.517380    0.442670    0.777817 C.3       1 <1>        -0.058954 
      9 C           3.477505   -0.893148   -1.408276 C.3       1 <1>        -0.058954 
     10 C          -1.548231   -0.940715   -1.732189 C.2       1 <1>        -0.084317 
     11 C          -2.537722   -1.546443   -2.403446 C.2       1 <1>        -0.102084 
     12 C          -2.972366   -0.651843    0.376051 C.3       1 <1>        -0.055264 
     13 C          -1.405621    1.685615    1.101363 C.2       1 <1>        -0.072067 
     14 C          -2.412408    2.571362    1.123904 C.2       1 <1>        -0.099125 
     15 C          -0.608308    1.417182    2.362665 C.3       1 <1>        -0.043456 
     16 H          -1.503712    1.462066   -1.010751 H         1 <1>         0.039627 
     17 H           0.824829    2.049477   -0.591427 H         1 <1>         0.057794 
     18 H           1.534883   -1.870821    0.683431 H         1 <1>         0.031034 
     19 H           0.934767   -1.984099   -0.985168 H         1 <1>         0.031034 
     20 H          -0.934571   -2.529834    0.422409 H         1 <1>         0.027679 
     21 H          -0.571524   -1.222832    1.564539 H         1 <1>         0.027679 
     22 H           2.940563    1.164529   -1.168184 H         1 <1>         0.034025 
     23 H           4.584291    0.667605    0.623239 H         1 <1>         0.023536 
     24 H           3.059874    1.285125    1.320596 H         1 <1>         0.023536 
     25 H           3.439789   -0.458812    1.403782 H         1 <1>         0.023536 
     26 H           4.518320   -0.622291   -1.645983 H         1 <1>         0.023536 
     27 H           2.935062   -1.043509   -2.354775 H         1 <1>         0.023536 
     28 H           3.493993   -1.842811   -0.852971 H         1 <1>         0.023536 
     29 H          -0.652053   -0.708870   -2.310981 H         1 <1>         0.057205 
     30 H          -2.411980   -1.778374   -3.461650 H         1 <1>         0.053192 
     31 H          -3.491093   -1.836538   -1.968628 H         1 <1>         0.053192 
     32 H          -3.336503   -1.690096    0.358341 H         1 <1>         0.023830 
     33 H          -3.682052   -0.012274   -0.170912 H         1 <1>         0.023830 
     34 H          -2.968538   -0.338033    1.430091 H         1 <1>         0.023830 
     35 H          -2.672534    3.105928    2.037247 H         1 <1>         0.053450 
     36 H          -3.012163    2.789761    0.241039 H         1 <1>         0.053450 
     37 H           0.416413    1.073834    2.161663 H         1 <1>         0.027446 
     38 H          -1.124426    0.655827    2.965442 H         1 <1>         0.027446 
     39 H          -0.531197    2.331703    2.970405 H         1 <1>         0.027446 
@<TRIPOS>BOND
     1    1    2 1    
     2    1    6 1    
     3    1   13 1    
     4    1   16 1    
     5    2    3 2    
     6    2   17 1    
     7    3    4 1    
     8    3    7 1    
     9    4    5 1    
    10    4   18 1    
    11    4   19 1    
    12    5    6 1    
    13    5   20 1    
    14    5   21 1    
    15    6   10 1    
    16    6   12 1    
    17    7    8 1    
    18    7    9 1    
    19    7   22 1    
    20    8   23 1    
    21    8   24 1    
    22    8   25 1    
    23    9   26 1    
    24    9   27 1    
    25    9   28 1    
    26   10   11 2    
    27   10   29 1    
    28   11   30 1    
    29   11   31 1    
    30   12   32 1    
    31   12   33 1    
    32   12   34 1    
    33   13   14 2    
    34   13   15 1    
    35   14   35 1    
    36   14   36 1    
    37   15   37 1    
    38   15   38 1    
    39   15   39 1    
@<TRIPOS>SUBSTRUCTURE
     1 ****        1 TEMP              0 ****  ****    0 ROOT 
@<TRIPOS>NORMAL
@<TRIPOS>FF_PBC
FORCE_FIELD_SETUP_FEATURE Force Field Setup information
v1.0  0 0.000000 0.000000 0.000000 0.000000 0.000000 0.000000 NONE 0 0 0 0 1 0 0 0 0 0 0 0 0
