@<TRIPOS>MOLECULE
MOL000942
   42    43     1     1     0
SMALL
GASTEIGER


@<TRIPOS>ATOM
      1 C           1.146487   -2.095920    0.343974 C.3       1 <1>         0.066683 
      2 C           2.199597   -1.171382    1.003485 C.3       1 <1>        -0.023706 
      3 C           2.292514    0.198435    0.296188 C.3       1 <1>        -0.046837 
      4 C           0.945303    0.988338    0.249202 C.3       1 <1>        -0.032002 
      5 C          -0.268701    0.061678   -0.122235 C.3       1 <1>        -0.014167 
      6 C          -1.602376    0.627033    0.342253 C.2       1 <1>        -0.081307 
      7 C          -2.720437   -0.098039    0.503585 C.2       1 <1>        -0.076238 
      8 C          -2.758328   -1.591971    0.288254 C.3       1 <1>        -0.031637 
      9 C          -1.403472   -2.182595   -0.177744 C.3       1 <1>        -0.043385 
     10 C          -0.234066   -1.385401    0.470889 C.3       1 <1>        -0.005587 
     11 O           1.207021   -3.286221    1.155780 O.3       1 <1>        -0.388553 
     12 C           1.141916    2.202467   -0.743788 C.3       1 <1>        -0.043343 
     13 C           2.300375    3.149781   -0.301666 C.3       1 <1>        -0.062396 
     14 C          -0.116114    3.082143   -1.001145 C.3       1 <1>        -0.062396 
     15 C          -4.030734    0.525028    0.938608 C.3       1 <1>        -0.043778 
     16 C           1.516956   -2.471489   -1.120526 C.3       1 <1>        -0.035799 
     17 H           3.184107   -1.668402    0.979657 H         1 <1>         0.029291 
     18 H           1.937582   -1.011255    2.062831 H         1 <1>         0.029291 
     19 H           3.044793    0.770504    0.863455 H         1 <1>         0.026908 
     20 H           2.692429    0.043030   -0.717062 H         1 <1>         0.026908 
     21 H           0.755721    1.368320    1.267105 H         1 <1>         0.030901 
     22 H          -0.283255    0.003034   -1.221084 H         1 <1>         0.034935 
     23 H          -1.686880    1.681881    0.581203 H         1 <1>         0.057450 
     24 H          -3.553781   -1.861290   -0.425586 H         1 <1>         0.031000 
     25 H          -3.013919   -2.034710    1.265165 H         1 <1>         0.031000 
     26 H          -1.338498   -2.114402   -1.275660 H         1 <1>         0.027203 
     27 H          -1.389527   -3.251189    0.083851 H         1 <1>         0.027203 
     28 H          -0.428018   -1.324666    1.556122 H         1 <1>         0.033419 
     29 H           0.642838   -3.994971    0.871665 H         1 <1>         0.210159 
     30 H           1.414738    1.796221   -1.733963 H         1 <1>         0.029832 
     31 H           3.286272    2.670851   -0.385980 H         1 <1>         0.023242 
     32 H           2.345062    4.049899   -0.934081 H         1 <1>         0.023242 
     33 H           2.146615    3.471424    0.739642 H         1 <1>         0.023242 
     34 H          -0.932170    2.500516   -1.454307 H         1 <1>         0.023242 
     35 H           0.112823    3.890046   -1.713907 H         1 <1>         0.023242 
     36 H          -0.454096    3.551927   -0.065298 H         1 <1>         0.023242 
     37 H          -3.971534    1.615471    1.074215 H         1 <1>         0.027436 
     38 H          -4.801961    0.319959    0.181060 H         1 <1>         0.027436 
     39 H          -4.348627    0.080319    1.893545 H         1 <1>         0.027436 
     40 H           2.548798   -2.852049   -1.155856 H         1 <1>         0.025730 
     41 H           1.434813   -1.618719   -1.807476 H         1 <1>         0.025730 
     42 H           0.855005   -3.267025   -1.492604 H         1 <1>         0.025730 
@<TRIPOS>BOND
     1    1    2 1    
     2    1   10 1    
     3    1   11 1    
     4    1   16 1    
     5    2    3 1    
     6    2   17 1    
     7    2   18 1    
     8    3    4 1    
     9    3   19 1    
    10    3   20 1    
    11    4    5 1    
    12    4   12 1    
    13    4   21 1    
    14    5    6 1    
    15    5   10 1    
    16    5   22 1    
    17    6    7 2    
    18    6   23 1    
    19    7    8 1    
    20    7   15 1    
    21    8    9 1    
    22    8   24 1    
    23    8   25 1    
    24    9   10 1    
    25    9   26 1    
    26    9   27 1    
    27   10   28 1    
    28   11   29 1    
    29   12   13 1    
    30   12   14 1    
    31   12   30 1    
    32   13   31 1    
    33   13   32 1    
    34   13   33 1    
    35   14   34 1    
    36   14   35 1    
    37   14   36 1    
    38   15   37 1    
    39   15   38 1    
    40   15   39 1    
    41   16   40 1    
    42   16   41 1    
    43   16   42 1    
@<TRIPOS>SUBSTRUCTURE
     1 ****        1 TEMP              0 ****  ****    0 ROOT 
@<TRIPOS>NORMAL
@<TRIPOS>FF_PBC
FORCE_FIELD_SETUP_FEATURE Force Field Setup information
v1.0  0 0.000000 0.000000 0.000000 0.000000 0.000000 0.000000 NONE 0 0 0 0 1 0 0 0 0 0 0 0 0
