@<TRIPOS>MOLECULE
MOL009548
   28    29     1     1     0
SMALL
GASTEIGER


@<TRIPOS>ATOM
      1 O          -1.272588    2.689704    0.762889 O.3       1 <1>        -0.366101 
      2 O          -2.355552    0.720538    0.933625 O.3       1 <1>        -0.321968 
      3 O           1.510912   -2.393404   -0.214899 O.3       1 <1>        -0.387133 
      4 O           2.964207    2.160963   -1.600381 O.3       1 <1>        -0.390723 
      5 O          -2.144233   -3.555110    1.214579 O.3       1 <1>        -0.327671 
      6 O          -1.367112   -3.450606   -0.837512 O.2       1 <1>        -0.259700 
      7 C          -0.364176    0.768963   -0.507713 C.3       1 <1>         0.043257 
      8 C          -0.323446   -0.777070   -0.441251 C.3       1 <1>         0.032456 
      9 C          -1.037580    1.274181    0.788996 C.3       1 <1>         0.168466 
     10 C           1.003213   -1.143129    0.274570 C.3       1 <1>         0.081411 
     11 C           1.117360    1.042588   -0.565844 C.2       1 <1>        -0.037437 
     12 C           1.857767    0.020354   -0.135072 C.2       1 <1>        -0.053458 
     13 C          -1.531116   -1.377561    0.230362 C.2       1 <1>         0.053059 
     14 C           1.637698    2.361552   -1.080841 C.3       1 <1>         0.065815 
     15 C          -2.458438   -0.614205    0.829217 C.2       1 <1>         0.052351 
     16 C          -1.679289   -2.850826    0.176841 C.2       1 <1>         0.289497 
     17 H          -0.479209    3.209565    0.759627 H         1 <1>         0.212509 
     18 H           2.364472   -2.609545    0.146968 H         1 <1>         0.210232 
     19 H           3.358476    2.956004   -1.947675 H         1 <1>         0.209834 
     20 H          -2.285672   -3.052524    2.006879 H         1 <1>         0.220546 
     21 H          -0.923817    1.122119   -1.389511 H         1 <1>         0.040249 
     22 H          -0.258295   -1.154650   -1.477103 H         1 <1>         0.038700 
     23 H          -0.445829    0.999729    1.680565 H         1 <1>         0.091761 
     24 H           0.888774   -1.153364    1.372203 H         1 <1>         0.064386 
     25 H           2.946067    0.023142   -0.084024 H         1 <1>         0.059804 
     26 H           0.978122    2.735674   -1.881598 H         1 <1>         0.060400 
     27 H           1.667112    3.094373   -0.259578 H         1 <1>         0.060400 
     28 H          -3.367726   -1.047454    1.245782 H         1 <1>         0.089059 
@<TRIPOS>BOND
     1    9    1 1    
     2    1   17 1    
     3    2    9 1    
     4   15    2 1    
     5   10    3 1    
     6    3   18 1    
     7   14    4 1    
     8    4   19 1    
     9   16    5 1    
    10    5   20 1    
    11   16    6 2    
    12    8    7 1    
    13    7    9 1    
    14    7   11 1    
    15    7   21 1    
    16    8   10 1    
    17   13    8 1    
    18    8   22 1    
    19    9   23 1    
    20   10   12 1    
    21   10   24 1    
    22   12   11 2    
    23   11   14 1    
    24   12   25 1    
    25   13   15 2    
    26   13   16 1    
    27   14   26 1    
    28   14   27 1    
    29   15   28 1    
@<TRIPOS>SUBSTRUCTURE
     1 ****        7 TEMP              0 ****  ****    0 ROOT 
@<TRIPOS>NORMAL
@<TRIPOS>FF_PBC
FORCE_FIELD_SETUP_FEATURE Force Field Setup information
v1.0  0 0.000000 0.000000 0.000000 0.000000 0.000000 0.000000 NONE 0 0 0 0 1 0 0 0 0 0 0 0 0
