@<TRIPOS>MOLECULE
MOL007465
   62    61     1     1     0
SMALL
GASTEIGER


@<TRIPOS>ATOM
      1 C           9.103213   -6.677413    2.017683 C.3       1 <1>        -0.065276 
      2 C           7.569607   -6.648324    1.787728 C.3       1 <1>        -0.055911 
      3 C           7.031434   -5.191997    1.745283 C.3       1 <1>        -0.053306 
      4 C           5.495398   -5.162803    1.515055 C.3       1 <1>        -0.053065 
      5 C           4.957045   -3.706450    1.465998 C.3       1 <1>        -0.053057 
      6 C           3.420446   -3.677327    1.238955 C.3       1 <1>        -0.053057 
      7 C           2.883328   -2.220354    1.184919 C.3       1 <1>        -0.053048 
      8 C           1.348153   -2.186871    0.942511 C.3       1 <1>        -0.052815 
      9 C           0.812522   -0.726754    0.900300 C.3       1 <1>        -0.050459 
     10 C          -0.672247   -0.594310    0.433486 C.3       1 <1>        -0.043879 
     11 C          -1.646363   -1.330938    1.397366 C.3       1 <1>        -0.062415 
     12 C          -1.031287    0.919896    0.295758 C.3       1 <1>        -0.050459 
     13 C          -2.440170    1.195791   -0.303299 C.3       1 <1>        -0.052815 
     14 C          -2.636105    2.704374   -0.622907 C.3       1 <1>        -0.053048 
     15 C          -4.047677    2.981141   -1.209901 C.3       1 <1>        -0.053057 
     16 C          -4.238033    4.486112   -1.544567 C.3       1 <1>        -0.053057 
     17 C          -5.648030    4.759787   -2.136329 C.3       1 <1>        -0.053065 
     18 C          -5.839504    6.264511   -2.470789 C.3       1 <1>        -0.053306 
     19 C          -7.247237    6.536474   -3.067648 C.3       1 <1>        -0.055911 
     20 C          -7.439122    8.039650   -3.398192 C.3       1 <1>        -0.065276 
     21 H           9.462946   -7.718292    2.042401 H         1 <1>         0.022978 
     22 H           9.623777   -6.146465    1.205465 H         1 <1>         0.022978 
     23 H           9.357809   -6.196302    2.974930 H         1 <1>         0.022978 
     24 H           7.072793   -7.202036    2.601933 H         1 <1>         0.026265 
     25 H           7.339161   -7.154881    0.835552 H         1 <1>         0.026265 
     26 H           7.533268   -4.642900    0.931611 H         1 <1>         0.026520 
     27 H           7.267120   -4.689282    2.697737 H         1 <1>         0.026520 
     28 H           4.994806   -5.709442    2.331236 H         1 <1>         0.026528 
     29 H           5.260048   -5.670012    0.564836 H         1 <1>         0.026528 
     30 H           5.456501   -3.162156    0.647707 H         1 <1>         0.026528 
     31 H           5.194643   -3.197486    2.414562 H         1 <1>         0.026528 
     32 H           2.921004   -4.220727    2.058013 H         1 <1>         0.026528 
     33 H           3.183195   -4.187852    0.290973 H         1 <1>         0.026528 
     34 H           3.395420   -1.680312    0.371566 H         1 <1>         0.026529 
     35 H           3.112742   -1.710661    2.135308 H         1 <1>         0.026529 
     36 H           0.865808   -2.748701    1.757266 H         1 <1>         0.026537 
     37 H           1.121225   -2.688475   -0.012362 H         1 <1>         0.026537 
     38 H           1.446978   -0.164306    0.195890 H         1 <1>         0.026785 
     39 H           0.928185   -0.270341    1.896707 H         1 <1>         0.026785 
     40 H          -0.759412   -1.058515   -0.564419 H         1 <1>         0.029813 
     41 H          -2.684830   -1.266061    1.044235 H         1 <1>         0.023242 
     42 H          -1.410501   -2.402049    1.463773 H         1 <1>         0.023242 
     43 H          -1.588000   -0.893167    2.405444 H         1 <1>         0.023242 
     44 H          -0.955037    1.408511    1.280675 H         1 <1>         0.026785 
     45 H          -0.292274    1.391256   -0.372718 H         1 <1>         0.026785 
     46 H          -2.565521    0.610462   -1.228799 H         1 <1>         0.026537 
     47 H          -3.224689    0.898034    0.409345 H         1 <1>         0.026537 
     48 H          -2.501454    3.292711    0.299793 H         1 <1>         0.026529 
     49 H          -1.875053    3.027399   -1.352167 H         1 <1>         0.026529 
     50 H          -4.183153    2.385021   -2.127355 H         1 <1>         0.026528 
     51 H          -4.814083    2.671174   -0.480528 H         1 <1>         0.026528 
     52 H          -4.104791    5.083027   -0.627246 H         1 <1>         0.026528 
     53 H          -3.471492    4.797387   -2.273339 H         1 <1>         0.026528 
     54 H          -5.779660    4.163362   -3.054168 H         1 <1>         0.026528 
     55 H          -6.415495    4.447685   -1.408938 H         1 <1>         0.026528 
     56 H          -5.711909    6.861329   -1.552668 H         1 <1>         0.026520 
     57 H          -5.070786    6.578096   -3.196137 H         1 <1>         0.026520 
     58 H          -7.377771    5.945472   -3.989593 H         1 <1>         0.026265 
     59 H          -8.020769    6.224916   -2.345979 H         1 <1>         0.026265 
     60 H          -8.441972    8.209709   -3.821157 H         1 <1>         0.022978 
     61 H          -7.335473    8.649746   -2.487278 H         1 <1>         0.022978 
     62 H          -6.688667    8.370924   -4.132918 H         1 <1>         0.022978 
@<TRIPOS>BOND
     1    1    2 1    
     2    1   21 1    
     3    1   22 1    
     4    1   23 1    
     5    2    3 1    
     6    2   24 1    
     7    2   25 1    
     8    3    4 1    
     9    3   26 1    
    10    3   27 1    
    11    4    5 1    
    12    4   28 1    
    13    4   29 1    
    14    5    6 1    
    15    5   30 1    
    16    5   31 1    
    17    6    7 1    
    18    6   32 1    
    19    6   33 1    
    20    7    8 1    
    21    7   34 1    
    22    7   35 1    
    23    8    9 1    
    24    8   36 1    
    25    8   37 1    
    26    9   10 1    
    27    9   38 1    
    28    9   39 1    
    29   10   11 1    
    30   10   12 1    
    31   10   40 1    
    32   11   41 1    
    33   11   42 1    
    34   11   43 1    
    35   12   13 1    
    36   12   44 1    
    37   12   45 1    
    38   13   14 1    
    39   13   46 1    
    40   13   47 1    
    41   14   15 1    
    42   14   48 1    
    43   14   49 1    
    44   15   16 1    
    45   15   50 1    
    46   15   51 1    
    47   16   17 1    
    48   16   52 1    
    49   16   53 1    
    50   17   18 1    
    51   17   54 1    
    52   17   55 1    
    53   18   19 1    
    54   18   56 1    
    55   18   57 1    
    56   19   20 1    
    57   19   58 1    
    58   19   59 1    
    59   20   60 1    
    60   20   61 1    
    61   20   62 1    
@<TRIPOS>SUBSTRUCTURE
     1 ****        1 TEMP              0 ****  ****    0 ROOT 
@<TRIPOS>NORMAL
@<TRIPOS>FF_PBC
FORCE_FIELD_SETUP_FEATURE Force Field Setup information
v1.0  0 0.000000 0.000000 0.000000 0.000000 0.000000 0.000000 NONE 0 0 0 0 1 0 0 0 0 0 0 0 0
