@<TRIPOS>MOLECULE
MOL001900
   82    86     1     1     0
SMALL
GASTEIGER


@<TRIPOS>ATOM
      1 C          -4.986167   -2.414335   -0.200008 C.3       1 <1>         0.062974 
      2 C          -4.797966   -0.906913   -0.487981 C.3       1 <1>        -0.025747 
      3 C          -3.619366   -0.286570    0.320474 C.3       1 <1>        -0.044728 
      4 C          -3.719633   -3.231631   -0.662230 C.3       1 <1>         0.020273 
      5 C          -4.013368   -3.729376   -2.127673 C.3       1 <1>         0.052200 
      6 C          -3.571298   -4.530214    0.192057 C.3       1 <1>        -0.054830 
      7 C          -2.421777   -2.317219   -0.641126 C.3       1 <1>        -0.025497 
      8 C          -1.063006   -3.079357   -0.761869 C.3       1 <1>        -0.048537 
      9 C           0.098211   -2.110881   -1.130326 C.3       1 <1>        -0.046559 
     10 C           0.368023   -0.993920   -0.066260 C.3       1 <1>        -0.023070 
     11 C           0.940056   -1.730199    1.202132 C.3       1 <1>        -0.058784 
     12 C           1.430555    0.092567   -0.603757 C.3       1 <1>        -0.023246 
     13 C           1.082232    0.586099   -2.065795 C.3       1 <1>        -0.058792 
     14 C           2.893198   -0.485543   -0.712401 C.3       1 <1>        -0.045876 
     15 C           3.998420    0.559411   -1.065277 C.3       1 <1>        -0.037524 
     16 C           4.020416    1.650340    0.038778 C.3       1 <1>         0.059584 
     17 C           4.535812    1.026834    1.329340 C.2       1 <1>         0.266102 
     18 C           4.919423    2.881916   -0.225970 C.3       1 <1>        -0.037496 
     19 C           4.380269    3.893233    0.825345 C.3       1 <1>        -0.045260 
     20 C           2.873908    3.534665    1.049706 C.3       1 <1>        -0.016314 
     21 C           1.971924    4.749642    0.873430 C.2       1 <1>        -0.076310 
     22 C           1.360219    5.328087    1.917686 C.2       1 <1>        -0.099438 
     23 C           1.786040    5.299896   -0.526165 C.3       1 <1>        -0.043768 
     24 C           2.627529    2.333592    0.091392 C.3       1 <1>        -0.016530 
     25 C           1.499363    1.303585    0.409223 C.3       1 <1>        -0.030772 
     26 C           0.109051    1.951652    0.621082 C.3       1 <1>        -0.049114 
     27 C          -0.875092    0.892403    1.192582 C.3       1 <1>        -0.048916 
     28 C          -1.036646   -0.318236    0.221794 C.3       1 <1>        -0.029438 
     29 C          -2.339444   -1.206801    0.472742 C.3       1 <1>        -0.025166 
     30 C          -2.385536   -1.822765    1.916408 C.3       1 <1>        -0.059018 
     31 O           3.922942    1.024970    2.386293 O.2       1 <1>        -0.264547 
     32 O           5.742401    0.460152    1.241205 O.3       1 <1>        -0.330843 
     33 O          -2.990471   -4.593091   -2.653123 O.3       1 <1>        -0.394374 
     34 O          -5.376533   -2.539031    1.180467 O.3       1 <1>        -0.391162 
     35 H          -5.885270   -2.723801   -0.763246 H         1 <1>         0.059936 
     36 H          -5.728738   -0.369332   -0.235324 H         1 <1>         0.029039 
     37 H          -4.639984   -0.771494   -1.570686 H         1 <1>         0.029039 
     38 H          -3.417582    0.658834   -0.209143 H         1 <1>         0.027149 
     39 H          -3.992622    0.017554    1.312833 H         1 <1>         0.027149 
     40 H          -4.946904   -4.319537   -2.146190 H         1 <1>         0.056334 
     41 H          -4.152193   -2.872346   -2.807589 H         1 <1>         0.056334 
     42 H          -3.398148   -4.324064    1.253846 H         1 <1>         0.023667 
     43 H          -4.486299   -5.138287    0.121077 H         1 <1>         0.023667 
     44 H          -2.741830   -5.156551   -0.166913 H         1 <1>         0.023667 
     45 H          -2.481884   -1.746196   -1.580919 H         1 <1>         0.031291 
     46 H          -1.101009   -3.811505   -1.579546 H         1 <1>         0.026847 
     47 H          -0.829063   -3.654464    0.141918 H         1 <1>         0.026847 
     48 H          -0.201686   -1.677913   -2.093177 H         1 <1>         0.027087 
     49 H           1.009119   -2.702102   -1.314727 H         1 <1>         0.027087 
     50 H           1.736208   -2.438332    0.933325 H         1 <1>         0.023533 
     51 H           0.207847   -2.342981    1.711263 H         1 <1>         0.023533 
     52 H           1.335468   -1.080930    1.988135 H         1 <1>         0.023533 
     53 H           0.046685    0.898710   -2.224483 H         1 <1>         0.023533 
     54 H           1.662522    1.443519   -2.409380 H         1 <1>         0.023533 
     55 H           1.300672   -0.193482   -2.809777 H         1 <1>         0.023533 
     56 H           2.938542   -1.294351   -1.457727 H         1 <1>         0.027106 
     57 H           3.220447   -0.911770    0.243922 H         1 <1>         0.027106 
     58 H           3.843071    1.008691   -2.055353 H         1 <1>         0.027568 
     59 H           4.981738    0.063010   -1.112849 H         1 <1>         0.027568 
     60 H           5.997192    2.677578   -0.118266 H         1 <1>         0.027568 
     61 H           4.748252    3.266851   -1.245012 H         1 <1>         0.027568 
     62 H           4.540490    4.929885    0.489521 H         1 <1>         0.027135 
     63 H           4.938699    3.767008    1.769235 H         1 <1>         0.027135 
     64 H           2.752067    3.155042    2.077078 H         1 <1>         0.034848 
     65 H           0.713164    6.195486    1.789077 H         1 <1>         0.053440 
     66 H           1.479974    4.958682    2.935795 H         1 <1>         0.053440 
     67 H           2.719857    5.256815   -1.105889 H         1 <1>         0.027436 
     68 H           1.013687    4.718906   -1.051773 H         1 <1>         0.027436 
     69 H           1.460560    6.351521   -0.507124 H         1 <1>         0.027436 
     70 H           2.419893    2.786225   -0.881877 H         1 <1>         0.031953 
     71 H           1.781464    0.953270    1.402803 H         1 <1>         0.030934 
     72 H           0.184008    2.773125    1.351493 H         1 <1>         0.026829 
     73 H          -0.264595    2.380891   -0.320620 H         1 <1>         0.026829 
     74 H          -1.833663    1.399802    1.378357 H         1 <1>         0.026837 
     75 H          -0.493813    0.556526    2.167625 H         1 <1>         0.026837 
     76 H          -1.302025    0.145002   -0.730230 H         1 <1>         0.031155 
     77 H          -1.967801   -1.133384    2.659297 H         1 <1>         0.023525 
     78 H          -3.403723   -2.024858    2.258730 H         1 <1>         0.023525 
     79 H          -1.873020   -2.780587    2.018997 H         1 <1>         0.023525 
     80 H           6.023025    0.080652    2.066850 H         1 <1>         0.220226 
     81 H          -3.155351   -4.897799   -3.541002 H         1 <1>         0.209420 
     82 H          -5.663708   -3.408656    1.439711 H         1 <1>         0.209801 
@<TRIPOS>BOND
     1    1    2 1    
     2    1    4 1    
     3    1   34 1    
     4    1   35 1    
     5    2    3 1    
     6    2   36 1    
     7    2   37 1    
     8    3   29 1    
     9    3   38 1    
    10    3   39 1    
    11    4    5 1    
    12    4    6 1    
    13    4    7 1    
    14    5   33 1    
    15    5   40 1    
    16    5   41 1    
    17    6   42 1    
    18    6   43 1    
    19    6   44 1    
    20    7    8 1    
    21    7   29 1    
    22    7   45 1    
    23    8    9 1    
    24    8   46 1    
    25    8   47 1    
    26    9   10 1    
    27    9   48 1    
    28    9   49 1    
    29   10   11 1    
    30   10   12 1    
    31   10   28 1    
    32   11   50 1    
    33   11   51 1    
    34   11   52 1    
    35   12   13 1    
    36   12   14 1    
    37   12   25 1    
    38   13   53 1    
    39   13   54 1    
    40   13   55 1    
    41   14   15 1    
    42   14   56 1    
    43   14   57 1    
    44   15   16 1    
    45   15   58 1    
    46   15   59 1    
    47   16   17 1    
    48   16   18 1    
    49   16   24 1    
    50   17   31 2    
    51   17   32 1    
    52   18   19 1    
    53   18   60 1    
    54   18   61 1    
    55   19   20 1    
    56   19   62 1    
    57   19   63 1    
    58   20   21 1    
    59   20   24 1    
    60   20   64 1    
    61   21   22 2    
    62   21   23 1    
    63   22   65 1    
    64   22   66 1    
    65   23   67 1    
    66   23   68 1    
    67   23   69 1    
    68   24   25 1    
    69   24   70 1    
    70   25   26 1    
    71   25   71 1    
    72   26   27 1    
    73   26   72 1    
    74   26   73 1    
    75   27   28 1    
    76   27   74 1    
    77   27   75 1    
    78   28   29 1    
    79   28   76 1    
    80   29   30 1    
    81   30   77 1    
    82   30   78 1    
    83   30   79 1    
    84   32   80 1    
    85   33   81 1    
    86   34   82 1    
@<TRIPOS>SUBSTRUCTURE
     1 ****        1 TEMP              0 ****  ****    0 ROOT 
@<TRIPOS>NORMAL
@<TRIPOS>FF_PBC
FORCE_FIELD_SETUP_FEATURE Force Field Setup information
v1.0  0 0.000000 0.000000 0.000000 0.000000 0.000000 0.000000 NONE 0 0 0 0 1 0 0 0 0 0 0 0 0
