@<TRIPOS>MOLECULE
MOL004237
   39    39     1     1     0
SMALL
GASTEIGER


@<TRIPOS>ATOM
      1 C          -0.586973   -1.168445    0.956526 C.3       1 <1>        -0.004124 
      2 C           0.767069   -1.089823    0.181298 C.3       1 <1>         0.006706 
      3 C           1.199704    0.329133   -0.104452 C.2       1 <1>        -0.076628 
      4 C           0.400703    1.404777   -0.024622 C.2       1 <1>        -0.070261 
      5 C          -1.057596    1.296216    0.367058 C.3       1 <1>        -0.030677 
      6 C          -1.588681   -0.159980    0.326850 C.3       1 <1>        -0.039653 
      7 C          -1.201312   -2.553136    0.798046 C.2       1 <1>        -0.084317 
      8 C          -1.526089   -3.407062    1.779127 C.2       1 <1>        -0.102084 
      9 C           1.416391   -3.128875   -1.115938 C.2       1 <1>        -0.099125 
     10 C           0.842069   -1.916809   -1.096370 C.2       1 <1>        -0.072067 
     11 C           0.244361   -1.345145   -2.366633 C.3       1 <1>        -0.043456 
     12 C          -0.340597   -0.797059    2.453362 C.3       1 <1>        -0.055264 
     13 C           0.934479    2.795845   -0.333361 C.3       1 <1>        -0.025545 
     14 C           0.610505    3.169229   -1.804667 C.3       1 <1>        -0.058954 
     15 C           0.417769    3.886520    0.644856 C.3       1 <1>        -0.058954 
     16 H           1.534791   -1.493704    0.861427 H         1 <1>         0.039627 
     17 H           2.241083    0.452925   -0.405647 H         1 <1>         0.057794 
     18 H          -1.184911    1.705874    1.380647 H         1 <1>         0.031034 
     19 H          -1.681302    1.899212   -0.311299 H         1 <1>         0.031034 
     20 H          -2.558626   -0.213592    0.848974 H         1 <1>         0.027679 
     21 H          -1.772325   -0.430441   -0.722861 H         1 <1>         0.027679 
     22 H          -1.411955   -2.895477   -0.216527 H         1 <1>         0.057205 
     23 H          -1.963413   -4.375273    1.531655 H         1 <1>         0.053192 
     24 H          -1.388965   -3.210739    2.839904 H         1 <1>         0.053192 
     25 H           1.463593   -3.715799   -2.032817 H         1 <1>         0.053450 
     26 H           1.851892   -3.578525   -0.224118 H         1 <1>         0.053450 
     27 H           0.832080   -1.660482   -3.242191 H         1 <1>         0.027446 
     28 H          -0.778238   -1.728656   -2.492839 H         1 <1>         0.027446 
     29 H           0.211785   -0.246782   -2.376100 H         1 <1>         0.027446 
     30 H           0.293978   -1.549544    2.945792 H         1 <1>         0.023830 
     31 H          -1.293661   -0.728077    2.999788 H         1 <1>         0.023830 
     32 H           0.181727    0.165490    2.550702 H         1 <1>         0.023830 
     33 H           2.034566    2.793540   -0.233787 H         1 <1>         0.034025 
     34 H           1.014891    2.403867   -2.485547 H         1 <1>         0.023536 
     35 H           1.063815    4.138991   -2.063256 H         1 <1>         0.023536 
     36 H          -0.475091    3.241239   -1.965932 H         1 <1>         0.023536 
     37 H           0.629283    3.590099    1.684187 H         1 <1>         0.023536 
     38 H           0.923347    4.845155    0.448254 H         1 <1>         0.023536 
     39 H          -0.664926    4.046771    0.534036 H         1 <1>         0.023536 
@<TRIPOS>BOND
     1    1    2 1    
     2    1    6 1    
     3    1    7 1    
     4    1   12 1    
     5    2    3 1    
     6    2   10 1    
     7    2   16 1    
     8    3    4 2    
     9    3   17 1    
    10    4    5 1    
    11    4   13 1    
    12    5    6 1    
    13    5   18 1    
    14    5   19 1    
    15    6   20 1    
    16    6   21 1    
    17    7    8 2    
    18    7   22 1    
    19    8   23 1    
    20    8   24 1    
    21   10    9 2    
    22    9   25 1    
    23    9   26 1    
    24   10   11 1    
    25   11   27 1    
    26   11   28 1    
    27   11   29 1    
    28   12   30 1    
    29   12   31 1    
    30   12   32 1    
    31   13   14 1    
    32   13   15 1    
    33   13   33 1    
    34   14   34 1    
    35   14   35 1    
    36   14   36 1    
    37   15   37 1    
    38   15   38 1    
    39   15   39 1    
@<TRIPOS>SUBSTRUCTURE
     1 ****        1 TEMP              0 ****  ****    0 ROOT 
@<TRIPOS>NORMAL
@<TRIPOS>FF_PBC
FORCE_FIELD_SETUP_FEATURE Force Field Setup information
v1.0  0 0.000000 0.000000 0.000000 0.000000 0.000000 0.000000 NONE 0 0 0 0 1 0 0 0 0 0 0 0 0
