@<TRIPOS>MOLECULE
MOL013276
   76    80     1     1     0
SMALL
GASTEIGER


@<TRIPOS>ATOM
      1 C           2.593067    1.440267    0.975458 C.ar      1 <1>         0.092370 
      2 C           3.082293    2.511248    0.076406 C.ar      1 <1>         0.077223 
      3 O           3.320775    1.091173    2.118528 O.3       1 <1>        -0.335586 
      4 C           1.395195    0.770312    0.673112 C.ar      1 <1>        -0.000657 
      5 C           4.364675    3.208615    0.461237 C.2       1 <1>         0.170906 
      6 C           2.358155    2.850146   -1.094031 C.ar      1 <1>         0.087976 
      7 C           4.163650    2.115393    2.684097 C.3       1 <1>         0.097162 
      8 C           0.612352    1.108465   -0.540996 C.ar      1 <1>         0.084385 
      9 C           5.147318    2.668716    1.624552 C.3       1 <1>         0.041564 
     10 O           4.749249    4.180669   -0.170517 O.2       1 <1>        -0.291783 
     11 C           1.108663    2.123879   -1.410315 C.ar      1 <1>        -0.000944 
     12 O           2.789316    3.853582   -1.965589 O.3       1 <1>        -0.358966 
     13 C           5.006797    1.528751    3.825129 C.ar      1 <1>        -0.017820 
     14 O          -0.587932    0.421051   -0.794131 O.3       1 <1>        -0.312375 
     15 C           5.211142    2.282829    5.086261 C.ar      1 <1>        -0.053654 
     16 C           5.607730    0.261636    3.674818 C.ar      1 <1>        -0.053654 
     17 C          -1.401899    0.733830   -1.940093 C.3       1 <1>         0.194011 
     18 C           6.011788    1.746131    6.108618 C.ar      1 <1>        -0.031353 
     19 C           6.456751   -0.299576    4.752798 C.ar      1 <1>        -0.031353 
     20 C          -2.690613   -0.135854   -1.957668 C.3       1 <1>         0.141013 
     21 O          -1.714218    2.136335   -1.829590 O.3       1 <1>        -0.340157 
     22 C           6.657417    0.423940    5.938469 C.ar      1 <1>         0.075832 
     23 O          -2.271328   -1.483966   -2.292833 O.3       1 <1>        -0.337748 
     24 C          -3.658289    0.405696   -3.053798 C.3       1 <1>         0.114441 
     25 C          -2.439185    2.642088   -2.962523 C.3       1 <1>         0.113017 
     26 O           7.464034   -0.090121    6.954813 O.3       1 <1>        -0.347912 
     27 C          -3.227339   -2.523327   -1.996147 C.3       1 <1>         0.188431 
     28 C          -3.821207    1.948050   -3.013814 C.3       1 <1>         0.111906 
     29 O          -4.978381   -0.165387   -2.951719 O.3       1 <1>        -0.386391 
     30 C          -2.575558    4.178297   -2.805317 C.3       1 <1>         0.073015 
     31 C           6.890433   -1.182046    7.691562 C.3       1 <1>         0.043026 
     32 C          -2.888619   -3.758541   -2.866255 C.3       1 <1>         0.134123 
     33 O          -3.089365   -2.827108   -0.593054 O.3       1 <1>        -0.343067 
     34 O          -4.554226    2.341636   -4.191973 O.3       1 <1>        -0.386488 
     35 O          -3.386669    4.694556   -3.883208 O.3       1 <1>        -0.392366 
     36 C          -3.870052   -4.905780   -2.503300 C.3       1 <1>         0.113972 
     37 O          -2.993361   -3.403434   -4.262222 O.3       1 <1>        -0.384104 
     38 C          -3.926057   -3.912942   -0.139611 C.3       1 <1>         0.087307 
     39 C          -3.730406   -5.208601   -0.988604 C.3       1 <1>         0.109478 
     40 O          -5.214609   -4.538503   -2.876437 O.3       1 <1>        -0.386402 
     41 C          -5.410058   -3.474305    0.023354 C.3       1 <1>        -0.036060 
     42 O          -2.411456   -5.766402   -0.809451 O.3       1 <1>        -0.386579 
     43 H           1.035688   -0.007789    1.332439 H         1 <1>         0.066941 
     44 H           3.521160    2.927246    3.065299 H         1 <1>         0.065571 
     45 H           5.774004    3.463025    2.060156 H         1 <1>         0.037400 
     46 H           5.800369    1.866070    1.247343 H         1 <1>         0.037400 
     47 H           0.599673    2.399801   -2.320739 H         1 <1>         0.066933 
     48 H           3.561870    4.323414   -1.662814 H         1 <1>         0.217342 
     49 H           4.743078    3.251309    5.222821 H         1 <1>         0.062190 
     50 H           5.457038   -0.309329    2.763612 H         1 <1>         0.062190 
     51 H          -0.819483    0.505468   -2.849987 H         1 <1>         0.094170 
     52 H           6.162790    2.295636    7.030798 H         1 <1>         0.064337 
     53 H           6.928807   -1.266753    4.625321 H         1 <1>         0.064337 
     54 H          -3.158005   -0.062724   -0.962713 H         1 <1>         0.067490 
     55 H          -3.209487    0.128732   -4.022172 H         1 <1>         0.064768 
     56 H          -1.902675    2.454090   -3.909064 H         1 <1>         0.064668 
     57 H          -4.249453   -2.235963   -2.267243 H         1 <1>         0.093753 
     58 H          -4.388009    2.217675   -2.107487 H         1 <1>         0.064673 
     59 H          -5.549299    0.120977   -3.660876 H         1 <1>         0.210005 
     60 H          -1.564434    4.619724   -2.824005 H         1 <1>         0.058370 
     61 H          -3.029966    4.408475   -1.827931 H         1 <1>         0.058370 
     62 H           7.610862   -1.477159    8.468396 H         1 <1>         0.052869 
     63 H           5.949626   -0.866188    8.170741 H         1 <1>         0.052869 
     64 H           6.695301   -2.045819    7.036001 H         1 <1>         0.052869 
     65 H          -1.848357   -4.046447   -2.639319 H         1 <1>         0.067095 
     66 H          -4.642033    3.289441   -4.271474 H         1 <1>         0.210004 
     67 H          -3.457495    5.646875   -3.878618 H         1 <1>         0.209508 
     68 H          -3.577907   -5.803658   -3.076677 H         1 <1>         0.064757 
     69 H          -2.792809   -4.124041   -4.851638 H         1 <1>         0.210110 
     70 H          -3.572747   -4.135306    0.882068 H         1 <1>         0.062075 
     71 H          -4.474562   -5.972036   -0.700270 H         1 <1>         0.064584 
     72 H          -5.854572   -5.228393   -2.728413 H         1 <1>         0.210005 
     73 H          -5.989803   -4.274973    0.507340 H         1 <1>         0.025536 
     74 H          -5.449681   -2.579878    0.664471 H         1 <1>         0.025536 
     75 H          -5.897648   -3.229079   -0.928290 H         1 <1>         0.025536 
     76 H          -2.214723   -6.018306    0.086673 H         1 <1>         0.210002 
@<TRIPOS>BOND
     1    1    2 1    
     2    1    3 1    
     3    1    4 2    
     4    2    5 1    
     5    2    6 2    
     6    3    7 1    
     7    4    8 1    
     8    4   43 1    
     9    5    9 1    
    10    5   10 2    
    11    6   11 1    
    12    6   12 1    
    13    7    9 1    
    14    7   13 1    
    15    7   44 1    
    16    8   11 2    
    17    8   14 1    
    18    9   45 1    
    19    9   46 1    
    20   11   47 1    
    21   12   48 1    
    22   13   15 1    
    23   13   16 2    
    24   14   17 1    
    25   15   18 2    
    26   15   49 1    
    27   16   19 1    
    28   16   50 1    
    29   17   20 1    
    30   17   21 1    
    31   17   51 1    
    32   18   22 1    
    33   18   52 1    
    34   19   22 2    
    35   19   53 1    
    36   20   23 1    
    37   20   24 1    
    38   20   54 1    
    39   21   25 1    
    40   22   26 1    
    41   23   27 1    
    42   24   28 1    
    43   24   29 1    
    44   24   55 1    
    45   25   28 1    
    46   25   30 1    
    47   25   56 1    
    48   26   31 1    
    49   27   32 1    
    50   27   33 1    
    51   27   57 1    
    52   28   34 1    
    53   28   58 1    
    54   29   59 1    
    55   30   35 1    
    56   30   60 1    
    57   30   61 1    
    58   31   62 1    
    59   31   63 1    
    60   31   64 1    
    61   32   36 1    
    62   32   37 1    
    63   32   65 1    
    64   33   38 1    
    65   34   66 1    
    66   35   67 1    
    67   36   39 1    
    68   36   40 1    
    69   36   68 1    
    70   37   69 1    
    71   38   39 1    
    72   38   41 1    
    73   38   70 1    
    74   39   42 1    
    75   39   71 1    
    76   40   72 1    
    77   41   73 1    
    78   41   74 1    
    79   41   75 1    
    80   42   76 1    
@<TRIPOS>SUBSTRUCTURE
     1 ****        1 TEMP              0 ****  ****    0 ROOT 
@<TRIPOS>NORMAL
@<TRIPOS>FF_PBC
FORCE_FIELD_SETUP_FEATURE Force Field Setup information
v1.0  0 0.000000 0.000000 0.000000 0.000000 0.000000 0.000000 NONE 0 0 0 0 1 0 0 0 0 0 0 0 0
