@<TRIPOS>MOLECULE
MOL004074
   78    81     1     1     0
SMALL
GASTEIGER


@<TRIPOS>ATOM
      1 O          -5.920055    3.501264   -2.255722 O.3       1 <1>        -0.391474 
      2 C          -5.721993    2.447182   -3.217580 C.3       1 <1>         0.058951 
      3 C          -5.416423    1.131772   -2.443304 C.3       1 <1>        -0.025766 
      4 C          -4.716669    0.131969   -3.403430 C.3       1 <1>        -0.041314 
      5 C          -4.576561    2.773254   -4.220506 C.3       1 <1>        -0.005079 
      6 C          -3.294519    2.128981   -3.723874 C.2       1 <1>        -0.064841 
      7 C          -2.287122    2.905142   -3.316328 C.2       1 <1>        -0.083874 
      8 C          -1.039418    2.345031   -2.718444 C.3       1 <1>        -0.031102 
      9 C          -1.392978    1.105420   -1.856987 C.3       1 <1>        -0.030653 
     10 C          -0.064578    0.559151   -1.226353 C.3       1 <1>        -0.031963 
     11 C           0.331407    1.381837    0.022545 C.3       1 <1>        -0.049151 
     12 C           1.387927    0.467247    0.674386 C.3       1 <1>        -0.048906 
     13 C           0.744150   -0.944456    0.586735 C.3       1 <1>        -0.029351 
     14 C           1.783711   -2.048410    0.999802 C.3       1 <1>        -0.022395 
     15 C           2.212929   -1.721564    2.425721 C.2       1 <1>        -0.084547 
     16 C           3.456413   -1.471413    2.853301 C.2       1 <1>        -0.084339 
     17 C           3.753986   -1.076463    4.291811 C.3       1 <1>        -0.020812 
     18 C           5.081254   -1.730075    4.783439 C.3       1 <1>        -0.049381 
     19 C           4.830159   -3.035611    5.578293 C.3       1 <1>        -0.064738 
     20 C           3.758540    0.485553    4.364970 C.3       1 <1>        -0.040461 
     21 C           3.688577    1.073881    5.810266 C.3       1 <1>        -0.062133 
     22 C           4.955243    1.095923    3.575948 C.3       1 <1>        -0.062133 
     23 C           1.212107   -3.491013    1.061467 C.3       1 <1>        -0.058684 
     24 C          -0.019765   -0.952737   -0.803263 C.3       1 <1>        -0.025605 
     25 C           0.712310   -1.821651   -1.877268 C.3       1 <1>        -0.059029 
     26 C          -1.503783   -1.394699   -0.610137 C.3       1 <1>        -0.046804 
     27 C          -2.447597   -1.210015   -1.840512 C.3       1 <1>        -0.048644 
     28 C          -2.113816    0.041718   -2.719818 C.3       1 <1>        -0.028547 
     29 C          -3.246157    0.597279   -3.696814 C.3       1 <1>        -0.007820 
     30 C          -2.893728    0.104803   -5.139516 C.3       1 <1>        -0.055578 
     31 H          -6.171442    4.334066   -2.642517 H         1 <1>         0.209789 
     32 H          -6.658236    2.330330   -3.795992 H         1 <1>         0.059621 
     33 H          -4.748449    1.342322   -1.587684 H         1 <1>         0.029039 
     34 H          -6.365849    0.727742   -2.048376 H         1 <1>         0.029039 
     35 H          -5.330183    0.142863   -4.319095 H         1 <1>         0.027446 
     36 H          -4.798513   -0.904153   -3.054178 H         1 <1>         0.027446 
     37 H          -4.496111    3.865247   -4.332596 H         1 <1>         0.033510 
     38 H          -4.799612    2.375168   -5.221346 H         1 <1>         0.033510 
     39 H          -2.354515    3.988813   -3.402264 H         1 <1>         0.057190 
     40 H          -0.593708    3.113608   -2.072215 H         1 <1>         0.031025 
     41 H          -0.331752    2.115148   -3.528993 H         1 <1>         0.031025 
     42 H          -2.115862    1.400988   -1.080643 H         1 <1>         0.030949 
     43 H           0.760941    0.700850   -1.944847 H         1 <1>         0.030897 
     44 H           0.727501    2.385617   -0.202234 H         1 <1>         0.026828 
     45 H          -0.519412    1.487515    0.712865 H         1 <1>         0.026828 
     46 H           1.573474    0.798235    1.707023 H         1 <1>         0.026837 
     47 H           2.342018    0.486821    0.118172 H         1 <1>         0.026837 
     48 H          -0.018019   -0.951461    1.385530 H         1 <1>         0.031167 
     49 H           2.655630   -2.035897    0.323399 H         1 <1>         0.034310 
     50 H           1.409839   -1.680260    3.165636 H         1 <1>         0.057182 
     51 H           4.273141   -1.531279    2.128742 H         1 <1>         0.057190 
     52 H           2.933403   -1.399139    4.956881 H         1 <1>         0.034534 
     53 H           5.746124   -1.934749    3.930504 H         1 <1>         0.026833 
     54 H           5.624264   -1.055206    5.456923 H         1 <1>         0.026833 
     55 H           5.786097   -3.444129    5.942529 H         1 <1>         0.022995 
     56 H           4.199803   -2.807516    6.449870 H         1 <1>         0.022995 
     57 H           4.330581   -3.795740    4.961678 H         1 <1>         0.022995 
     58 H           2.829754    0.813855    3.859844 H         1 <1>         0.030110 
     59 H           3.654823    2.175081    5.764485 H         1 <1>         0.023251 
     60 H           2.778983    0.732007    6.330448 H         1 <1>         0.023251 
     61 H           4.560694    0.793750    6.420818 H         1 <1>         0.023251 
     62 H           4.805909    2.181870    3.460341 H         1 <1>         0.023251 
     63 H           5.046409    0.651006    2.573437 H         1 <1>         0.023251 
     64 H           5.910491    0.936979    4.101175 H         1 <1>         0.023251 
     65 H           1.926787   -4.157188    1.567928 H         1 <1>         0.023544 
     66 H           1.037314   -3.928717    0.074354 H         1 <1>         0.023544 
     67 H           0.265531   -3.501591    1.618167 H         1 <1>         0.023544 
     68 H           0.488813   -2.888299   -1.780144 H         1 <1>         0.023525 
     69 H           0.419192   -1.570663   -2.898379 H         1 <1>         0.023525 
     70 H           1.799116   -1.674273   -1.835434 H         1 <1>         0.023525 
     71 H          -1.538371   -2.442908   -0.271858 H         1 <1>         0.027078 
     72 H          -1.933875   -0.776180    0.203863 H         1 <1>         0.027078 
     73 H          -3.439809   -1.126730   -1.374376 H         1 <1>         0.026846 
     74 H          -2.452133   -2.113717   -2.470818 H         1 <1>         0.026846 
     75 H          -1.295202   -0.276872   -3.372462 H         1 <1>         0.031195 
     76 H          -1.918861    0.505860   -5.457555 H         1 <1>         0.023820 
     77 H          -3.629912    0.425336   -5.889899 H         1 <1>         0.023820 
     78 H          -2.844669   -0.997761   -5.157825 H         1 <1>         0.023820 
@<TRIPOS>BOND
     1    1    2 1    
     2    1   31 1    
     3    2    3 1    
     4    2    5 1    
     5    2   32 1    
     6    3    4 1    
     7    3   33 1    
     8    3   34 1    
     9    4   29 1    
    10    4   35 1    
    11    4   36 1    
    12    5    6 1    
    13    5   37 1    
    14    5   38 1    
    15    6    7 2    
    16    6   29 1    
    17    7    8 1    
    18    7   39 1    
    19    8    9 1    
    20    8   40 1    
    21    8   41 1    
    22    9   10 1    
    23    9   28 1    
    24    9   42 1    
    25   10   11 1    
    26   10   24 1    
    27   10   43 1    
    28   11   12 1    
    29   11   44 1    
    30   11   45 1    
    31   12   13 1    
    32   12   46 1    
    33   12   47 1    
    34   13   14 1    
    35   13   24 1    
    36   13   48 1    
    37   14   15 1    
    38   14   23 1    
    39   14   49 1    
    40   15   16 2    
    41   15   50 1    
    42   16   17 1    
    43   16   51 1    
    44   17   18 1    
    45   17   20 1    
    46   17   52 1    
    47   18   19 1    
    48   18   53 1    
    49   18   54 1    
    50   19   55 1    
    51   19   56 1    
    52   19   57 1    
    53   20   21 1    
    54   20   22 1    
    55   20   58 1    
    56   21   59 1    
    57   21   60 1    
    58   21   61 1    
    59   22   62 1    
    60   22   63 1    
    61   22   64 1    
    62   23   65 1    
    63   23   66 1    
    64   23   67 1    
    65   24   25 1    
    66   24   26 1    
    67   25   68 1    
    68   25   69 1    
    69   25   70 1    
    70   26   27 1    
    71   26   71 1    
    72   26   72 1    
    73   27   28 1    
    74   27   73 1    
    75   27   74 1    
    76   28   29 1    
    77   28   75 1    
    78   29   30 1    
    79   30   76 1    
    80   30   77 1    
    81   30   78 1    
@<TRIPOS>SUBSTRUCTURE
     1 ****        1 TEMP              0 ****  ****    0 ROOT 
@<TRIPOS>NORMAL
@<TRIPOS>FF_PBC
FORCE_FIELD_SETUP_FEATURE Force Field Setup information
v1.0  0 0.000000 0.000000 0.000000 0.000000 0.000000 0.000000 NONE 0 0 0 0 1 0 0 0 0 0 0 0 0
