@<TRIPOS>MOLECULE
MOL000396
   56    59     1     1     0
SMALL
GASTEIGER


@<TRIPOS>ATOM
      1 O           2.544019   -0.474636   -0.792767 O.3       1 <1>        -0.371219 
      2 C           1.678088    0.608894   -1.151246 C.3       1 <1>         0.089094 
      3 C           0.316877    0.171366   -0.548646 C.3       1 <1>         0.020452 
      4 C           0.433816   -1.373420   -0.470556 C.3       1 <1>         0.020452 
      5 C           1.830478   -1.680306   -1.071942 C.3       1 <1>         0.054370 
      6 O          -0.947760   -0.798576   -2.252379 O.3       1 <1>        -0.371219 
      7 C          -0.891098    0.415141   -1.489642 C.3       1 <1>         0.054370 
      8 C          -0.724110   -1.898362   -1.356796 C.3       1 <1>         0.089094 
      9 C           3.331781    4.343196    0.569741 C.ar      1 <1>         0.132936 
     10 C           2.798197    4.330461   -0.817021 C.ar      1 <1>         0.108312 
     11 C           2.255263    3.159168   -1.358257 C.ar      1 <1>        -0.023346 
     12 C           2.228930    1.910364   -0.559300 C.ar      1 <1>        -0.013507 
     13 C           2.732461    1.921212    0.754838 C.ar      1 <1>        -0.023346 
     14 C           3.295306    3.160820    1.334781 C.ar      1 <1>         0.108312 
     15 O           3.866227    5.516454    1.110896 O.3       1 <1>        -0.355384 
     16 O           3.785946    3.142762    2.641677 O.3       1 <1>        -0.345252 
     17 C           5.218353    3.083771    2.733155 C.3       1 <1>         0.043137 
     18 O           2.842299    5.496967   -1.582134 O.3       1 <1>        -0.345252 
     19 C           3.979545    5.568380   -2.458869 C.3       1 <1>         0.043137 
     20 C          -4.426424   -3.142859    0.799316 C.ar      1 <1>         0.132936 
     21 C          -4.008299   -3.782848   -0.473680 C.ar      1 <1>         0.108312 
     22 C          -2.856476   -3.365665   -1.141058 C.ar      1 <1>        -0.023346 
     23 C          -1.999427   -2.290836   -0.585182 C.ar      1 <1>        -0.013507 
     24 C          -2.390331   -1.685431    0.633776 C.ar      1 <1>        -0.023346 
     25 C          -3.619291   -2.102436    1.350860 C.ar      1 <1>         0.108312 
     26 O          -5.598986   -3.573123    1.428102 O.3       1 <1>        -0.355384 
     27 O          -3.927154   -1.442378    2.551940 O.3       1 <1>        -0.345252 
     28 C          -5.113164   -1.714273    3.313527 C.3       1 <1>         0.043137 
     29 O          -4.782652   -4.814628   -1.004520 O.3       1 <1>        -0.345252 
     30 C          -4.269565   -6.128437   -0.725285 C.3       1 <1>         0.043137 
     31 H           1.636248    0.673165   -2.251647 H         1 <1>         0.064977 
     32 H           0.172366    0.628897    0.444014 H         1 <1>         0.035574 
     33 H           0.401936   -1.751862    0.564641 H         1 <1>         0.035574 
     34 H           2.321709   -2.555292   -0.618442 H         1 <1>         0.056372 
     35 H           1.797861   -1.820043   -2.164965 H         1 <1>         0.056372 
     36 H          -0.772447    1.299192   -2.135423 H         1 <1>         0.056372 
     37 H          -1.828413    0.532677   -0.922292 H         1 <1>         0.056372 
     38 H          -0.408594   -2.781743   -1.934814 H         1 <1>         0.064977 
     39 H           1.858005    3.170779   -2.366987 H         1 <1>         0.064768 
     40 H           2.717555    1.018613    1.354729 H         1 <1>         0.064768 
     41 H           3.724974    6.260748    0.534555 H         1 <1>         0.217502 
     42 H           5.494839    3.082884    3.798373 H         1 <1>         0.052871 
     43 H           5.595121    2.159037    2.267365 H         1 <1>         0.052871 
     44 H           5.687647    3.955161    2.249401 H         1 <1>         0.052871 
     45 H           3.931892    6.519576   -3.009089 H         1 <1>         0.052871 
     46 H           3.974504    4.741668   -3.186471 H         1 <1>         0.052871 
     47 H           4.919275    5.540065   -1.884890 H         1 <1>         0.052871 
     48 H          -2.593356   -3.843718   -2.078364 H         1 <1>         0.064768 
     49 H          -1.798659   -0.896830    1.079073 H         1 <1>         0.064768 
     50 H          -6.072843   -4.200250    0.891866 H         1 <1>         0.217502 
     51 H          -5.104386   -1.051653    4.190751 H         1 <1>         0.052871 
     52 H          -5.128050   -2.754906    3.671843 H         1 <1>         0.052871 
     53 H          -6.017441   -1.496023    2.724972 H         1 <1>         0.052871 
     54 H          -4.951881   -6.868541   -1.169348 H         1 <1>         0.052871 
     55 H          -4.217058   -6.304083    0.360881 H         1 <1>         0.052871 
     56 H          -3.268834   -6.265285   -1.163751 H         1 <1>         0.052871 
@<TRIPOS>BOND
     1    1    2 1    
     2    5    1 1    
     3    3    2 1    
     4    2   12 1    
     5    2   31 1    
     6    4    3 1    
     7    7    3 1    
     8    3   32 1    
     9    4    5 1    
    10    8    4 1    
    11    4   33 1    
    12    5   34 1    
    13    5   35 1    
    14    6    7 1    
    15    8    6 1    
    16    7   36 1    
    17    7   37 1    
    18   23    8 1    
    19    8   38 1    
    20   10    9 1    
    21   14    9 2    
    22    9   15 1    
    23   11   10 2    
    24   10   18 1    
    25   12   11 1    
    26   11   39 1    
    27   12   13 2    
    28   13   14 1    
    29   13   40 1    
    30   14   16 1    
    31   15   41 1    
    32   16   17 1    
    33   17   42 1    
    34   17   43 1    
    35   17   44 1    
    36   18   19 1    
    37   19   45 1    
    38   19   46 1    
    39   19   47 1    
    40   21   20 1    
    41   20   25 2    
    42   20   26 1    
    43   22   21 2    
    44   21   29 1    
    45   22   23 1    
    46   22   48 1    
    47   23   24 2    
    48   24   25 1    
    49   24   49 1    
    50   25   27 1    
    51   26   50 1    
    52   27   28 1    
    53   28   51 1    
    54   28   52 1    
    55   28   53 1    
    56   29   30 1    
    57   30   54 1    
    58   30   55 1    
    59   30   56 1    
@<TRIPOS>SUBSTRUCTURE
     1 ****       20 TEMP              0 ****  ****    0 ROOT 
@<TRIPOS>NORMAL
@<TRIPOS>FF_PBC
FORCE_FIELD_SETUP_FEATURE Force Field Setup information
v1.0  0 0.000000 0.000000 0.000000 0.000000 0.000000 0.000000 NONE 0 0 0 0 1 0 0 0 0 0 0 0 0
