@<TRIPOS>MOLECULE
MOL001219
   55    54     1     1     0
SMALL
GASTEIGER


@<TRIPOS>ATOM
      1 C           9.824440   -1.195048    0.000153 C.3       1 <1>         0.044206 
      2 C           8.412605   -0.557321   -0.000051 C.3       1 <1>        -0.029718 
      3 C           7.293753   -1.635038    0.000197 C.3       1 <1>        -0.050987 
      4 C           5.885956   -0.979462   -0.000069 C.3       1 <1>        -0.052986 
      5 C           4.756387   -2.046151    0.000163 C.3       1 <1>        -0.053047 
      6 C           3.357001   -1.372714   -0.000305 C.3       1 <1>        -0.052779 
      7 C           2.210349   -2.421115   -0.000040 C.3       1 <1>        -0.049616 
      8 C           0.823435   -1.722903   -0.000999 C.3       1 <1>        -0.034761 
      9 C          -0.325261   -2.705032   -0.000473 C.2       1 <1>        -0.087932 
     10 C          -1.611344   -2.324357    0.000469 C.2       1 <1>        -0.087932 
     11 C          -2.039742   -0.875193    0.000997 C.3       1 <1>        -0.034761 
     12 C          -3.582999   -0.703878    0.000039 C.3       1 <1>        -0.049616 
     13 C          -3.970286    0.800696    0.000303 C.3       1 <1>        -0.052779 
     14 C          -5.509976    1.002833   -0.000161 C.3       1 <1>        -0.053048 
     15 C          -5.870551    2.514046    0.000073 C.3       1 <1>        -0.053065 
     16 C          -7.407344    2.737013   -0.000189 C.3       1 <1>        -0.053306 
     17 C          -7.754012    4.251113    0.000059 C.3       1 <1>        -0.055911 
     18 C          -9.287765    4.479838   -0.000148 C.3       1 <1>        -0.065276 
     19 O          10.797879   -0.135422   -0.000099 O.3       1 <1>        -0.395007 
     20 H           9.946199   -1.825251    0.897963 H         1 <1>         0.055696 
     21 H           9.946250   -1.825725   -0.897317 H         1 <1>         0.055696 
     22 H           8.314689    0.081813   -0.892999 H         1 <1>         0.028724 
     23 H           8.314631    0.082289    0.892548 H         1 <1>         0.028724 
     24 H           7.399783   -2.271642    0.894008 H         1 <1>         0.026599 
     25 H           7.399883   -2.272151   -0.893241 H         1 <1>         0.026599 
     26 H           5.783454   -0.341573   -0.893497 H         1 <1>         0.026529 
     27 H           5.783333   -0.341049    0.892971 H         1 <1>         0.026529 
     28 H           4.854705   -2.684067    0.893929 H         1 <1>         0.026529 
     29 H           4.854968   -2.684720   -0.893108 H         1 <1>         0.026529 
     30 H           3.263704   -0.733417   -0.893737 H         1 <1>         0.026538 
     31 H           3.263431   -0.732665    0.892562 H         1 <1>         0.026538 
     32 H           2.295820   -3.060095    0.894520 H         1 <1>         0.026822 
     33 H           2.296433   -3.061228   -0.893732 H         1 <1>         0.026822 
     34 H           0.748336   -1.086102   -0.896527 H         1 <1>         0.030732 
     35 H           0.747925   -1.084469    0.893332 H         1 <1>         0.030732 
     36 H          -0.099350   -3.773038   -0.000890 H         1 <1>         0.056896 
     37 H          -2.382506   -3.096991    0.000886 H         1 <1>         0.056896 
     38 H          -1.629566   -0.382384    0.896532 H         1 <1>         0.030732 
     39 H          -1.628332   -0.381237   -0.893342 H         1 <1>         0.030732 
     40 H          -4.003531   -1.192549   -0.894506 H         1 <1>         0.026822 
     41 H          -4.004660   -1.193161    0.893719 H         1 <1>         0.026822 
     42 H          -3.542649    1.284988    0.893727 H         1 <1>         0.026538 
     43 H          -3.542012    1.285468   -0.892557 H         1 <1>         0.026538 
     44 H          -5.941571    0.522967   -0.893923 H         1 <1>         0.026529 
     45 H          -5.942142    0.522565    0.893108 H         1 <1>         0.026529 
     46 H          -5.435429    2.991566    0.893470 H         1 <1>         0.026528 
     47 H          -5.435047    2.991937   -0.892941 H         1 <1>         0.026528 
     48 H          -7.845212    2.262625   -0.893860 H         1 <1>         0.026520 
     49 H          -7.845569    2.262257    0.893111 H         1 <1>         0.026520 
     50 H          -7.319151    4.729489    0.893634 H         1 <1>         0.026265 
     51 H          -7.318847    4.729853   -0.893171 H         1 <1>         0.026265 
     52 H          -9.509847    5.558816    0.000030 H         1 <1>         0.022978 
     53 H          -9.743258    4.028652   -0.895435 H         1 <1>         0.022978 
     54 H          -9.743555    4.028299    0.894808 H         1 <1>         0.022978 
     55 H          11.696359   -0.452072    0.000006 H         1 <1>         0.209395 
@<TRIPOS>BOND
     1    1    2 1    
     2    1   19 1    
     3    1   20 1    
     4    1   21 1    
     5    2    3 1    
     6    2   22 1    
     7    2   23 1    
     8    3    4 1    
     9    3   24 1    
    10    3   25 1    
    11    4    5 1    
    12    4   26 1    
    13    4   27 1    
    14    5    6 1    
    15    5   28 1    
    16    5   29 1    
    17    6    7 1    
    18    6   30 1    
    19    6   31 1    
    20    7    8 1    
    21    7   32 1    
    22    7   33 1    
    23    8    9 1    
    24    8   34 1    
    25    8   35 1    
    26    9   10 2    
    27    9   36 1    
    28   10   11 1    
    29   10   37 1    
    30   11   12 1    
    31   11   38 1    
    32   11   39 1    
    33   12   13 1    
    34   12   40 1    
    35   12   41 1    
    36   13   14 1    
    37   13   42 1    
    38   13   43 1    
    39   14   15 1    
    40   14   44 1    
    41   14   45 1    
    42   15   16 1    
    43   15   46 1    
    44   15   47 1    
    45   16   17 1    
    46   16   48 1    
    47   16   49 1    
    48   17   18 1    
    49   17   50 1    
    50   17   51 1    
    51   18   52 1    
    52   18   53 1    
    53   18   54 1    
    54   19   55 1    
@<TRIPOS>SUBSTRUCTURE
     1 ****        1 TEMP              0 ****  ****    0 ROOT 
@<TRIPOS>NORMAL
@<TRIPOS>FF_PBC
FORCE_FIELD_SETUP_FEATURE Force Field Setup information
v1.0  0 0.000000 0.000000 0.000000 0.000000 0.000000 0.000000 NONE 0 0 0 0 1 0 0 0 0 0 0 0 0
