@<TRIPOS>MOLECULE
MOL002259
   75    79     1     1     0
SMALL
GASTEIGER


@<TRIPOS>ATOM
      1 C           3.656156   -2.941556    1.273901 C.ar      1 <1>        -0.000811 
      2 C           4.054997   -4.236100    1.868816 C.ar      1 <1>         0.078973 
      3 C           5.330483   -4.348042    2.487271 C.ar      1 <1>        -0.020014 
      4 C           6.241847   -3.178105    2.524905 C.ar      1 <1>         0.038005 
      5 C           5.841284   -1.936471    1.976593 C.ar      1 <1>         0.063340 
      6 C           4.512394   -1.816455    1.327729 C.ar      1 <1>         0.093396 
      7 C           7.612378   -3.317060    3.146468 C.2       1 <1>         0.194755 
      8 C           8.597312   -2.172620    3.076401 C.ar      1 <1>         0.035809 
      9 C           8.191486   -0.921990    2.551708 C.ar      1 <1>         0.062824 
     10 C           6.776930   -0.750599    2.048355 C.2       1 <1>         0.199449 
     11 C           9.988801   -2.363485    3.550783 C.ar      1 <1>        -0.047151 
     12 C          10.917339   -1.301471    3.483039 C.ar      1 <1>        -0.047307 
     13 C          10.479914    0.011596    2.950896 C.ar      1 <1>        -0.028282 
     14 C           9.160191    0.206421    2.498172 C.ar      1 <1>         0.084321 
     15 O           3.158951   -5.309586    1.797809 O.3       1 <1>        -0.347809 
     16 C           3.502989   -6.616866    2.285796 C.3       1 <1>         0.043028 
     17 O           6.409293    0.360535    1.702309 O.2       1 <1>        -0.286435 
     18 O           8.789833    1.460922    2.007580 O.3       1 <1>        -0.359094 
     19 O           7.924819   -4.359744    3.698943 O.2       1 <1>        -0.286608 
     20 C          12.365730   -1.488039    3.950296 C.3       1 <1>        -0.039609 
     21 O           4.126390   -0.611897    0.740761 O.3       1 <1>        -0.311739 
     22 C           2.951084    0.072823    1.208536 C.3       1 <1>         0.193671 
     23 O           2.648242    0.930910    0.096713 O.3       1 <1>        -0.340158 
     24 C           1.445063    1.704969    0.268361 C.3       1 <1>         0.113377 
     25 C           1.634971    2.672906    1.462223 C.3       1 <1>         0.111906 
     26 C           1.984134    1.853951    2.732397 C.3       1 <1>         0.114074 
     27 C           3.205249    0.928216    2.477895 C.3       1 <1>         0.134509 
     28 C           1.178123    2.454641   -1.059780 C.3       1 <1>         0.079556 
     29 O           2.265367    2.777208    3.802018 O.3       1 <1>        -0.386401 
     30 O           1.231122    1.463621   -2.104912 O.3       1 <1>        -0.346050 
     31 C           1.065249    1.995447   -3.429308 C.3       1 <1>         0.188012 
     32 O          -0.279951    2.491709   -3.551919 O.3       1 <1>        -0.340532 
     33 C          -0.584823    2.982959   -4.874046 C.3       1 <1>         0.113005 
     34 C          -0.434046    1.843302   -5.917551 C.3       1 <1>         0.111896 
     35 C           0.999732    1.260187   -5.850611 C.3       1 <1>         0.114061 
     36 C           1.309454    0.814880   -4.401225 C.3       1 <1>         0.134113 
     37 C          -2.032593    3.538103   -4.860937 C.3       1 <1>         0.073015 
     38 O           1.088011    0.143269   -6.754833 O.3       1 <1>        -0.386401 
     39 O          -0.699769    2.360508   -7.235290 O.3       1 <1>        -0.386488 
     40 O           2.678283    0.366263   -4.331391 O.3       1 <1>        -0.384104 
     41 O           0.426808    3.433072    1.653816 O.3       1 <1>        -0.386488 
     42 O           3.386060    0.121187    3.659254 O.3       1 <1>        -0.384091 
     43 O          -2.089883    4.709036   -4.020951 O.3       1 <1>        -0.392366 
     44 H           2.693695   -2.872559    0.782019 H         1 <1>         0.066939 
     45 H           5.658837   -5.277315    2.936049 H         1 <1>         0.065057 
     46 H          10.290934   -3.327209    3.945359 H         1 <1>         0.062744 
     47 H          11.181756    0.837520    2.909766 H         1 <1>         0.064604 
     48 H           2.648985   -7.280892    2.087114 H         1 <1>         0.052870 
     49 H           4.384129   -7.018832    1.761414 H         1 <1>         0.052870 
     50 H           3.681921   -6.599816    3.371973 H         1 <1>         0.052870 
     51 H           7.874102    1.516314    1.752157 H         1 <1>         0.217340 
     52 H          12.629581   -2.553792    4.032457 H         1 <1>         0.027755 
     53 H          13.054227   -1.015824    3.232794 H         1 <1>         0.027755 
     54 H          12.491319   -1.012059    4.934560 H         1 <1>         0.027755 
     55 H           2.118035   -0.627050    1.379877 H         1 <1>         0.094160 
     56 H           0.579460    1.043637    0.444127 H         1 <1>         0.064677 
     57 H           2.479881    3.349077    1.241419 H         1 <1>         0.064673 
     58 H           1.107839    1.236539    2.997332 H         1 <1>         0.064758 
     59 H           4.087807    1.566190    2.299399 H         1 <1>         0.067108 
     60 H           0.200485    2.963376   -1.029851 H         1 <1>         0.058744 
     61 H           1.971098    3.203124   -1.206772 H         1 <1>         0.058744 
     62 H           2.493241    2.326921    4.610719 H         1 <1>         0.210005 
     63 H           1.815096    2.780542   -3.631641 H         1 <1>         0.093741 
     64 H           0.082822    3.819941   -5.140982 H         1 <1>         0.064668 
     65 H          -1.153875    1.042091   -5.673163 H         1 <1>         0.064673 
     66 H           1.714537    2.044385   -6.154536 H         1 <1>         0.064758 
     67 H           0.623568   -0.006494   -4.129912 H         1 <1>         0.067095 
     68 H          -2.711137    2.756011   -4.479763 H         1 <1>         0.058370 
     69 H          -2.338461    3.805037   -5.886879 H         1 <1>         0.058370 
     70 H           1.950477   -0.262500   -6.731259 H         1 <1>         0.210005 
     71 H          -0.590630    1.691610   -7.906265 H         1 <1>         0.210004 
     72 H           2.913874    0.107053   -3.443875 H         1 <1>         0.210110 
     73 H           0.495792    4.026040    2.397456 H         1 <1>         0.210004 
     74 H           4.159702   -0.430045    3.616602 H         1 <1>         0.210111 
     75 H          -2.960806    5.091730   -3.965685 H         1 <1>         0.209508 
@<TRIPOS>BOND
     1    1    2 1    
     2    1    6 2    
     3    1   44 1    
     4    2    3 2    
     5    2   15 1    
     6    3    4 1    
     7    3   45 1    
     8    4    5 2    
     9    4    7 1    
    10    5    6 1    
    11    5   10 1    
    12    6   21 1    
    13    7    8 1    
    14    7   19 2    
    15    8    9 2    
    16    8   11 1    
    17    9   10 1    
    18    9   14 1    
    19   10   17 2    
    20   11   12 2    
    21   11   46 1    
    22   12   13 1    
    23   12   20 1    
    24   13   14 2    
    25   13   47 1    
    26   14   18 1    
    27   15   16 1    
    28   16   48 1    
    29   16   49 1    
    30   16   50 1    
    31   18   51 1    
    32   20   52 1    
    33   20   53 1    
    34   20   54 1    
    35   21   22 1    
    36   22   23 1    
    37   22   27 1    
    38   22   55 1    
    39   23   24 1    
    40   24   25 1    
    41   24   28 1    
    42   24   56 1    
    43   25   26 1    
    44   25   41 1    
    45   25   57 1    
    46   26   27 1    
    47   26   29 1    
    48   26   58 1    
    49   27   42 1    
    50   27   59 1    
    51   28   30 1    
    52   28   60 1    
    53   28   61 1    
    54   29   62 1    
    55   30   31 1    
    56   31   32 1    
    57   31   36 1    
    58   31   63 1    
    59   32   33 1    
    60   33   34 1    
    61   33   37 1    
    62   33   64 1    
    63   34   35 1    
    64   34   39 1    
    65   34   65 1    
    66   35   36 1    
    67   35   38 1    
    68   35   66 1    
    69   36   40 1    
    70   36   67 1    
    71   37   43 1    
    72   37   68 1    
    73   37   69 1    
    74   38   70 1    
    75   39   71 1    
    76   40   72 1    
    77   41   73 1    
    78   42   74 1    
    79   43   75 1    
@<TRIPOS>SUBSTRUCTURE
     1 ****        1 TEMP              0 ****  ****    0 ROOT 
@<TRIPOS>NORMAL
@<TRIPOS>FF_PBC
FORCE_FIELD_SETUP_FEATURE Force Field Setup information
v1.0  0 0.000000 0.000000 0.000000 0.000000 0.000000 0.000000 NONE 0 0 0 0 1 0 0 0 0 0 0 0 0
