@<TRIPOS>MOLECULE
MOL008052
   22    22     1     1     0
SMALL
GASTEIGER


@<TRIPOS>ATOM
      1 C          -1.620689    0.827418   -0.013105 C.ar      1 <1>        -0.035583 
      2 C          -0.538150    1.911031    0.001638 C.3       1 <1>         0.035151 
      3 C          -2.118067    0.326432   -1.234401 C.ar      1 <1>        -0.057668 
      4 C          -2.155407    0.294445    1.264564 C.ar      1 <1>        -0.057668 
      5 C          -3.169359   -0.718544   -1.240584 C.ar      1 <1>        -0.061473 
      6 C          -3.151155   -0.695975    1.257442 C.ar      1 <1>        -0.061473 
      7 C          -3.672726   -1.215556   -0.028792 C.ar      1 <1>        -0.061741 
      8 C           0.768618    1.266307   -0.002597 C.1       1 <1>        -0.083747 
      9 C           1.846988    0.731837   -0.004975 C.1       1 <1>        -0.014521 
     10 C           3.082630    0.119062   -0.006249 C.1       1 <1>        -0.015106 
     11 C           5.467361   -1.062418   -0.005474 C.3       1 <1>        -0.001628 
     12 C           4.161222   -0.415430   -0.006281 C.1       1 <1>        -0.091791 
     13 H          -0.621079    2.562608   -0.881218 H         1 <1>         0.044649 
     14 H          -0.626154    2.533633    0.904540 H         1 <1>         0.044649 
     15 H          -1.734102    0.702040   -2.177055 H         1 <1>         0.062057 
     16 H          -1.775363    0.669257    2.209266 H         1 <1>         0.062057 
     17 H          -3.548434   -1.097475   -2.184313 H         1 <1>         0.061767 
     18 H          -3.540698   -1.083827    2.193374 H         1 <1>         0.061767 
     19 H          -4.442970   -1.980217   -0.030295 H         1 <1>         0.061758 
     20 H           5.742822   -1.332993   -1.035422 H         1 <1>         0.036181 
     21 H           5.425839   -1.970334    0.614133 H         1 <1>         0.036181 
     22 H           6.217867   -0.371399    0.405802 H         1 <1>         0.036181 
@<TRIPOS>BOND
     1    1    2 1    
     2    1    3 2    
     3    1    4 1    
     4    2    8 1    
     5    2   13 1    
     6    2   14 1    
     7    3    5 1    
     8    3   15 1    
     9    4    6 2    
    10    4   16 1    
    11    5    7 2    
    12    5   17 1    
    13    6    7 1    
    14    6   18 1    
    15    7   19 1    
    16    8    9 3    
    17    9   10 1    
    18   10   12 3    
    19   12   11 1    
    20   11   20 1    
    21   11   21 1    
    22   11   22 1    
@<TRIPOS>SUBSTRUCTURE
     1 ****        1 TEMP              0 ****  ****    0 ROOT 
@<TRIPOS>NORMAL
@<TRIPOS>FF_PBC
FORCE_FIELD_SETUP_FEATURE Force Field Setup information
v1.0  0 0.000000 0.000000 0.000000 0.000000 0.000000 0.000000 NONE 0 0 0 0 1 0 0 0 0 0 0 0 0
