@<TRIPOS>MOLECULE
MOL004982
   18    18     1     1     0
SMALL
GASTEIGER


@<TRIPOS>ATOM
      1 C          -0.954945    0.611278    0.005414 C.2       1 <1>         0.143834 
      2 C          -0.780265   -0.544800   -0.652885 C.2       1 <1>         0.083699 
      3 O           0.317245   -1.307544   -0.492660 O.3       1 <1>        -0.343573 
      4 C           1.494932   -0.595478   -0.065129 C.3       1 <1>         0.087132 
      5 C           1.274894    0.215565    1.231966 C.3       1 <1>         0.143198 
      6 C           0.052255    1.058037    0.988042 C.2       1 <1>         0.218136 
      7 O          -2.062450    1.337902   -0.211571 O.3       1 <1>        -0.354922 
      8 C          -1.788852   -1.113522   -1.616163 C.3       1 <1>        -0.015385 
      9 O          -0.131846    2.107632    1.585545 O.2       1 <1>        -0.287014 
     10 O           2.420482    1.045920    1.511638 O.3       1 <1>        -0.381525 
     11 H           2.286646   -1.342327    0.090208 H         1 <1>         0.059513 
     12 H           1.811119    0.089905   -0.868834 H         1 <1>         0.059513 
     13 H           1.059892   -0.452989    2.079706 H         1 <1>         0.070062 
     14 H          -2.095281    2.126559    0.319129 H         1 <1>         0.217518 
     15 H          -1.277438   -1.669663   -2.418071 H         1 <1>         0.029782 
     16 H          -2.392200   -0.318388   -2.080268 H         1 <1>         0.029782 
     17 H          -2.453354   -1.801834   -1.074264 H         1 <1>         0.029782 
     18 H           3.219163    0.553748    1.668300 H         1 <1>         0.210469 
@<TRIPOS>BOND
     1    1    2 2    
     2    1    6 1    
     3    1    7 1    
     4    2    3 1    
     5    2    8 1    
     6    3    4 1    
     7    4    5 1    
     8    4   11 1    
     9    4   12 1    
    10    5    6 1    
    11    5   10 1    
    12    5   13 1    
    13    6    9 2    
    14    7   14 1    
    15    8   15 1    
    16    8   16 1    
    17    8   17 1    
    18   10   18 1    
@<TRIPOS>SUBSTRUCTURE
     1 ****        1 TEMP              0 ****  ****    0 ROOT 
@<TRIPOS>NORMAL
@<TRIPOS>FF_PBC
FORCE_FIELD_SETUP_FEATURE Force Field Setup information
v1.0  0 0.000000 0.000000 0.000000 0.000000 0.000000 0.000000 NONE 0 0 0 0 1 0 0 0 0 0 0 0 0
