@<TRIPOS>MOLECULE
MOL004973
   23    22     1     1     0
SMALL
GASTEIGER


@<TRIPOS>ATOM
      1 C           0.049632    0.155827   -0.231426 C.3       1 <1>        -0.041785 
      2 C           1.565951    0.568028   -0.118724 C.3       1 <1>        -0.053080 
      3 C          -0.947949    1.369885   -0.118609 C.3       1 <1>        -0.053080 
      4 C          -0.257830   -0.807950   -1.439135 C.3       1 <1>        -0.053080 
      5 C           2.252221    0.011202    1.160319 C.3       1 <1>        -0.065026 
      6 C          -1.830023    1.313027    1.160333 C.3       1 <1>        -0.065026 
      7 C          -0.709133   -2.224533   -0.984630 C.3       1 <1>        -0.065026 
      8 H          -0.143723   -0.450491    0.667492 H         1 <1>         0.030052 
      9 H           2.160098    0.213179   -0.974468 H         1 <1>         0.026529 
     10 H           1.701635    1.660019   -0.098860 H         1 <1>         0.026529 
     11 H          -1.637711    1.424793   -0.974439 H         1 <1>         0.026529 
     12 H          -0.426279    2.338752   -0.098464 H         1 <1>         0.026529 
     13 H          -1.053477   -0.418607   -2.092268 H         1 <1>         0.026529 
     14 H           0.616034   -0.950533   -2.092787 H         1 <1>         0.026529 
     15 H           3.308792    0.322172    1.199560 H         1 <1>         0.022986 
     16 H           1.746122    0.390060    2.062442 H         1 <1>         0.022986 
     17 H           2.214982   -1.089746    1.166638 H         1 <1>         0.022986 
     18 H          -2.511487    2.178272    1.199604 H         1 <1>         0.022986 
     19 H          -1.198111    1.328841    2.062518 H         1 <1>         0.022986 
     20 H          -2.437043    0.393788    1.166504 H         1 <1>         0.022986 
     21 H          -0.913347   -2.864764   -1.858131 H         1 <1>         0.022986 
     22 H           0.079139   -2.702688   -0.381715 H         1 <1>         0.022986 
     23 H          -1.628492   -2.158534   -0.381355 H         1 <1>         0.022986 
@<TRIPOS>BOND
     1    1    2 1    
     2    1    3 1    
     3    1    4 1    
     4    1    8 1    
     5    2    5 1    
     6    2    9 1    
     7    2   10 1    
     8    3    6 1    
     9    3   11 1    
    10    3   12 1    
    11    4    7 1    
    12    4   13 1    
    13    4   14 1    
    14    5   15 1    
    15    5   16 1    
    16    5   17 1    
    17    6   18 1    
    18    6   19 1    
    19    6   20 1    
    20    7   21 1    
    21    7   22 1    
    22    7   23 1    
@<TRIPOS>SUBSTRUCTURE
     1 ****        1 TEMP              0 ****  ****    0 ROOT 
@<TRIPOS>NORMAL
@<TRIPOS>FF_PBC
FORCE_FIELD_SETUP_FEATURE Force Field Setup information
v1.0  0 0.000000 0.000000 0.000000 0.000000 0.000000 0.000000 NONE 0 0 0 0 1 0 0 0 0 0 0 0 0
