@<TRIPOS>MOLECULE
MOL000918
   28    27     1     1     0
SMALL
GASTEIGER


@<TRIPOS>ATOM
      1 C           4.193617    0.176675    0.000561 C.2       1 <1>         0.130322 
      2 O           5.247505   -0.439236    0.002203 O.2       1 <1>        -0.297704 
      3 C           2.883389   -0.579517   -0.000437 C.3       1 <1>         0.005543 
      4 C           1.579507    0.266676    0.000367 C.3       1 <1>        -0.046385 
      5 C           0.318017   -0.640821   -0.000084 C.3       1 <1>        -0.052673 
      6 C          -0.985735    0.203904    0.000243 C.3       1 <1>        -0.053055 
      7 C          -2.247818   -0.701388   -0.000050 C.3       1 <1>        -0.053306 
      8 C          -3.549651    0.145480    0.000163 C.3       1 <1>        -0.055911 
      9 C          -4.810166   -0.758004   -0.000094 C.3       1 <1>        -0.065276 
     10 C           4.193835    1.685109   -0.000508 C.3       1 <1>        -0.006065 
     11 H           2.886220   -1.226576   -0.891848 H         1 <1>         0.034143 
     12 H           2.885995   -1.228302    0.889727 H         1 <1>         0.034143 
     13 H           1.552449    0.907097    0.896502 H         1 <1>         0.026927 
     14 H           1.552163    0.908326   -0.894879 H         1 <1>         0.026927 
     15 H           0.331771   -1.286678   -0.893594 H         1 <1>         0.026539 
     16 H           0.331726   -1.287479    0.892847 H         1 <1>         0.026539 
     17 H          -1.001998    0.849525    0.893781 H         1 <1>         0.026528 
     18 H          -1.002034    0.850140   -0.892853 H         1 <1>         0.026528 
     19 H          -2.234042   -1.347017   -0.893623 H         1 <1>         0.026520 
     20 H          -2.234077   -1.347534    0.893148 H         1 <1>         0.026520 
     21 H          -3.569853    0.791472    0.893805 H         1 <1>         0.026265 
     22 H          -3.569835    0.791950   -0.893135 H         1 <1>         0.026265 
     23 H          -5.720737   -0.138100    0.000052 H         1 <1>         0.022978 
     24 H          -4.823252   -1.399131   -0.895309 H         1 <1>         0.022978 
     25 H          -4.823283   -1.399595    0.894787 H         1 <1>         0.022978 
     26 H           5.229709    2.057301   -0.000332 H         1 <1>         0.030578 
     27 H           3.693605    2.072412   -0.899657 H         1 <1>         0.030578 
     28 H           3.692875    2.073612    0.897717 H         1 <1>         0.030578 
@<TRIPOS>BOND
     1    1    2 2    
     2    1    3 1    
     3    1   10 1    
     4    3    4 1    
     5    3   11 1    
     6    3   12 1    
     7    4    5 1    
     8    4   13 1    
     9    4   14 1    
    10    5    6 1    
    11    5   15 1    
    12    5   16 1    
    13    6    7 1    
    14    6   17 1    
    15    6   18 1    
    16    7    8 1    
    17    7   19 1    
    18    7   20 1    
    19    8    9 1    
    20    8   21 1    
    21    8   22 1    
    22    9   23 1    
    23    9   24 1    
    24    9   25 1    
    25   10   26 1    
    26   10   27 1    
    27   10   28 1    
@<TRIPOS>SUBSTRUCTURE
     1 ****        1 TEMP              0 ****  ****    0 ROOT 
@<TRIPOS>NORMAL
@<TRIPOS>FF_PBC
FORCE_FIELD_SETUP_FEATURE Force Field Setup information
v1.0  0 0.000000 0.000000 0.000000 0.000000 0.000000 0.000000 NONE 0 0 0 0 1 0 0 0 0 0 0 0 0
