@<TRIPOS>MOLECULE
MOL002136
   32    33     1     1     0
SMALL
GASTEIGER


@<TRIPOS>ATOM
      1 O           1.830117    1.673463   -1.433170 O.3       1 <1>        -0.307742 
      2 C           0.881816    2.583630   -1.249000 C.2       1 <1>         0.290113 
      3 C          -0.459910    2.036854   -1.117033 C.2       1 <1>         0.025704 
      4 C          -0.311415    0.598616   -1.486311 C.3       1 <1>         0.016368 
      5 C           1.205408    0.395019   -1.152155 C.3       1 <1>         0.075325 
      6 C          -1.406875   -0.252260   -0.796687 C.3       1 <1>        -0.043365 
      7 C          -2.778290    0.374632   -1.165865 C.3       1 <1>        -0.048964 
      8 C          -2.883926    1.822567   -0.606602 C.3       1 <1>        -0.034003 
      9 C          -1.604703    2.614907   -0.739076 C.2       1 <1>        -0.074802 
     10 O           1.122051    3.778716   -1.210807 O.2       1 <1>        -0.259567 
     11 C           1.510105    0.074282    0.340984 C.3       1 <1>        -0.025431 
     12 C           1.444225   -1.443596    0.677293 C.3       1 <1>        -0.050929 
     13 C           1.732645   -1.696665    2.182572 C.3       1 <1>        -0.055830 
     14 C           1.687853   -3.209670    2.521237 C.3       1 <1>        -0.065275 
     15 H          -0.430671    0.534699   -2.581587 H         1 <1>         0.037586 
     16 H           1.672320   -0.374110   -1.789376 H         1 <1>         0.060810 
     17 H          -1.352742   -1.294416   -1.151232 H         1 <1>         0.027199 
     18 H          -1.310159   -0.235526    0.299609 H         1 <1>         0.027199 
     19 H          -3.601836   -0.241335   -0.766718 H         1 <1>         0.026841 
     20 H          -2.880658    0.397979   -2.263824 H         1 <1>         0.026841 
     21 H          -3.110980    1.774638    0.470763 H         1 <1>         0.030752 
     22 H          -3.709181    2.355443   -1.106455 H         1 <1>         0.030752 
     23 H          -1.604273    3.679062   -0.500190 H         1 <1>         0.057662 
     24 H           0.848062    0.660088    0.997439 H         1 <1>         0.029046 
     25 H           2.543870    0.398480    0.547595 H         1 <1>         0.029046 
     26 H           2.194175   -1.981621    0.073871 H         1 <1>         0.026600 
     27 H           0.458215   -1.861640    0.432962 H         1 <1>         0.026600 
     28 H           0.982374   -1.169029    2.795130 H         1 <1>         0.026266 
     29 H           2.728987   -1.300645    2.441281 H         1 <1>         0.026266 
     30 H           1.898374   -3.364865    3.591317 H         1 <1>         0.022978 
     31 H           2.440924   -3.757665    1.933692 H         1 <1>         0.022978 
     32 H           0.693083   -3.625195    2.296724 H         1 <1>         0.022978 
@<TRIPOS>BOND
     1    1    2 1    
     2    1    5 1    
     3    2    3 1    
     4    2   10 2    
     5    3    4 1    
     6    3    9 2    
     7    4    5 1    
     8    4    6 1    
     9    4   15 1    
    10    5   11 1    
    11    5   16 1    
    12    6    7 1    
    13    6   17 1    
    14    6   18 1    
    15    7    8 1    
    16    7   19 1    
    17    7   20 1    
    18    8    9 1    
    19    8   21 1    
    20    8   22 1    
    21    9   23 1    
    22   11   12 1    
    23   11   24 1    
    24   11   25 1    
    25   12   13 1    
    26   12   26 1    
    27   12   27 1    
    28   13   14 1    
    29   13   28 1    
    30   13   29 1    
    31   14   30 1    
    32   14   31 1    
    33   14   32 1    
@<TRIPOS>SUBSTRUCTURE
     1 ****        1 TEMP              0 ****  ****    0 ROOT 
@<TRIPOS>NORMAL
@<TRIPOS>FF_PBC
FORCE_FIELD_SETUP_FEATURE Force Field Setup information
v1.0  0 0.000000 0.000000 0.000000 0.000000 0.000000 0.000000 NONE 0 0 0 0 1 0 0 0 0 0 0 0 0
