@<TRIPOS>MOLECULE
MOL000876
   55    54     1     1     0
SMALL
GASTEIGER


@<TRIPOS>ATOM
      1 C           2.670369   -2.709680   -0.011738 C.3       1 <1>        -0.006065 
      2 C           3.050449   -1.819745   -1.167322 C.2       1 <1>         0.130322 
      3 C           3.535085   -0.420338   -0.868517 C.3       1 <1>         0.005552 
      4 C           2.378685    0.447277   -0.303993 C.3       1 <1>        -0.046143 
      5 C           2.830198    1.901802    0.000112 C.3       1 <1>        -0.050076 
      6 C           1.673644    2.900135    0.332028 C.3       1 <1>        -0.043869 
      7 C           0.796678    2.482816    1.558717 C.3       1 <1>        -0.050451 
      8 C          -0.456547    1.643553    1.172408 C.3       1 <1>        -0.052574 
      9 C          -1.285046    1.214206    2.414085 C.3       1 <1>        -0.050451 
     10 C          -2.571702    0.390625    2.080044 C.3       1 <1>        -0.043879 
     11 C          -2.269986   -0.927612    1.293637 C.3       1 <1>        -0.050451 
     12 C          -2.428542   -0.785479   -0.251086 C.3       1 <1>        -0.052582 
     13 C          -1.801239   -2.002847   -0.986937 C.3       1 <1>        -0.050700 
     14 C          -1.982965   -1.980079   -2.534902 C.3       1 <1>        -0.046721 
     15 C          -1.273098   -0.766318   -3.200510 C.3       1 <1>        -0.062665 
     16 O           2.943589   -2.216442   -2.316666 O.2       1 <1>        -0.297704 
     17 C          -1.425754   -3.299127   -3.142121 C.3       1 <1>        -0.062665 
     18 C          -3.308980    0.063824    3.411623 C.3       1 <1>        -0.062415 
     19 C           2.295804    4.306466    0.578836 C.3       1 <1>        -0.062415 
     20 H           1.604864   -2.571651    0.221518 H         1 <1>         0.030578 
     21 H           2.838050   -3.763054   -0.282268 H         1 <1>         0.030578 
     22 H           3.265176   -2.480825    0.884986 H         1 <1>         0.030578 
     23 H           3.916668    0.028544   -1.799714 H         1 <1>         0.034143 
     24 H           4.367052   -0.462342   -0.147983 H         1 <1>         0.034143 
     25 H           2.026313   -0.024691    0.626264 H         1 <1>         0.026935 
     26 H           1.563742    0.458197   -1.046586 H         1 <1>         0.026935 
     27 H           3.359968    2.280640   -0.889607 H         1 <1>         0.026796 
     28 H           3.550436    1.880396    0.834376 H         1 <1>         0.026796 
     29 H           1.025426    2.991689   -0.556805 H         1 <1>         0.029813 
     30 H           0.410688    3.382255    2.065392 H         1 <1>         0.026785 
     31 H           1.419372    1.940218    2.287583 H         1 <1>         0.026785 
     32 H          -0.133920    0.742601    0.644620 H         1 <1>         0.026545 
     33 H          -1.099268    2.233681    0.498467 H         1 <1>         0.026545 
     34 H          -1.578989    2.126563    2.958955 H         1 <1>         0.026785 
     35 H          -0.638792    0.619923    3.080685 H         1 <1>         0.026785 
     36 H          -3.252936    1.020409    1.481826 H         1 <1>         0.029813 
     37 H          -1.257848   -1.275990    1.553619 H         1 <1>         0.026785 
     38 H          -2.965078   -1.727093    1.599147 H         1 <1>         0.026785 
     39 H          -3.500264   -0.714707   -0.501152 H         1 <1>         0.026545 
     40 H          -1.954299    0.137488   -0.602463 H         1 <1>         0.026545 
     41 H          -0.724281   -2.045189   -0.759356 H         1 <1>         0.026777 
     42 H          -2.269479   -2.917524   -0.587410 H         1 <1>         0.026777 
     43 H          -3.061554   -1.926631   -2.765544 H         1 <1>         0.029548 
     44 H          -1.327048   -0.846478   -4.297210 H         1 <1>         0.023233 
     45 H          -1.748197    0.184748   -2.920339 H         1 <1>         0.023233 
     46 H          -0.212401   -0.733611   -2.907125 H         1 <1>         0.023233 
     47 H          -1.582650   -3.322810   -4.231768 H         1 <1>         0.023233 
     48 H          -1.933986   -4.173501   -2.706808 H         1 <1>         0.023233 
     49 H          -0.346223   -3.386504   -2.942848 H         1 <1>         0.023233 
     50 H          -4.266859   -0.442219    3.212285 H         1 <1>         0.023242 
     51 H          -3.526131    0.983860    3.976673 H         1 <1>         0.023242 
     52 H          -2.688855   -0.594806    4.039412 H         1 <1>         0.023242 
     53 H           1.508658    5.065066    0.713933 H         1 <1>         0.023242 
     54 H           2.917082    4.619112   -0.275062 H         1 <1>         0.023242 
     55 H           2.924921    4.290903    1.482306 H         1 <1>         0.023242 
@<TRIPOS>BOND
     1    1    2 1    
     2    1   20 1    
     3    1   21 1    
     4    1   22 1    
     5    2    3 1    
     6    2   16 2    
     7    3    4 1    
     8    3   23 1    
     9    3   24 1    
    10    4    5 1    
    11    4   25 1    
    12    4   26 1    
    13    5    6 1    
    14    5   27 1    
    15    5   28 1    
    16    6    7 1    
    17    6   19 1    
    18    6   29 1    
    19    7    8 1    
    20    7   30 1    
    21    7   31 1    
    22    8    9 1    
    23    8   32 1    
    24    8   33 1    
    25    9   10 1    
    26    9   34 1    
    27    9   35 1    
    28   10   11 1    
    29   10   18 1    
    30   10   36 1    
    31   11   12 1    
    32   11   37 1    
    33   11   38 1    
    34   12   13 1    
    35   12   39 1    
    36   12   40 1    
    37   13   14 1    
    38   13   41 1    
    39   13   42 1    
    40   14   15 1    
    41   14   17 1    
    42   14   43 1    
    43   15   44 1    
    44   15   45 1    
    45   15   46 1    
    46   17   47 1    
    47   17   48 1    
    48   17   49 1    
    49   18   50 1    
    50   18   51 1    
    51   18   52 1    
    52   19   53 1    
    53   19   54 1    
    54   19   55 1    
@<TRIPOS>SUBSTRUCTURE
     1 ****        1 TEMP              0 ****  ****    0 ROOT 
@<TRIPOS>NORMAL
@<TRIPOS>FF_PBC
FORCE_FIELD_SETUP_FEATURE Force Field Setup information
v1.0  0 0.000000 0.000000 0.000000 0.000000 0.000000 0.000000 NONE 0 0 0 0 1 0 0 0 0 0 0 0 0
