@<TRIPOS>MOLECULE
MOL004054
   38    39     1     1     0
SMALL
GASTEIGER


@<TRIPOS>ATOM
      1 O           0.367425    2.901398    0.423200 O.2       1 <1>        -0.297105 
      2 O          -4.099895   -0.396233    1.015492 O.3       1 <1>        -0.387500 
      3 C           2.450551   -0.142915    0.058217 C.3       1 <1>        -0.030760 
      4 C           0.960214   -0.180938    0.511316 C.3       1 <1>        -0.026049 
      5 C           0.593795    0.782932   -0.646308 C.3       1 <1>         0.021312 
      6 C           2.108317    1.041138   -0.882444 C.3       1 <1>        -0.037786 
      7 C           0.269543   -1.574423    0.552242 C.3       1 <1>        -0.045318 
      8 C           3.448598    0.218327    1.192650 C.3       1 <1>        -0.059520 
      9 C           2.947988   -1.369343   -0.759025 C.3       1 <1>        -0.059520 
     10 C          -0.177678    2.009401   -0.207482 C.2       1 <1>         0.136805 
     11 C          -1.257415   -1.487736    0.831366 C.3       1 <1>        -0.029301 
     12 C          -1.643875    2.129460   -0.551928 C.3       1 <1>         0.008746 
     13 C          -2.566664    1.475935    0.519622 C.3       1 <1>        -0.016322 
     14 C          -2.111956   -0.933930   -0.296715 C.2       1 <1>        -0.048520 
     15 C          -3.154783    0.113587    0.059247 C.3       1 <1>         0.076397 
     16 C          -1.987424   -1.367220   -1.560185 C.2       1 <1>        -0.097028 
     17 H           0.830195    0.333121    1.479774 H         1 <1>         0.031274 
     18 H           0.159596    0.254861   -1.508501 H         1 <1>         0.038030 
     19 H           2.431263    0.924112   -1.929667 H         1 <1>         0.027728 
     20 H           2.464360    2.004685   -0.485240 H         1 <1>         0.027728 
     21 H           0.743831   -2.133000    1.376983 H         1 <1>         0.027133 
     22 H           0.442349   -2.153505   -0.361981 H         1 <1>         0.027133 
     23 H           3.122529    1.105604    1.757018 H         1 <1>         0.023508 
     24 H           4.441308    0.428336    0.764774 H         1 <1>         0.023508 
     25 H           3.533203   -0.629493    1.889508 H         1 <1>         0.023508 
     26 H           2.970585   -2.265836   -0.120659 H         1 <1>         0.023508 
     27 H           3.969266   -1.179246   -1.122395 H         1 <1>         0.023508 
     28 H           2.314361   -1.565361   -1.637533 H         1 <1>         0.023508 
     29 H          -1.378186   -0.917320    1.763300 H         1 <1>         0.031080 
     30 H          -1.638129   -2.503331    1.024544 H         1 <1>         0.031080 
     31 H          -1.856891    3.210935   -0.598693 H         1 <1>         0.034253 
     32 H          -1.842365    1.726377   -1.556914 H         1 <1>         0.034253 
     33 H          -2.031461    1.378956    1.476229 H         1 <1>         0.029729 
     34 H          -3.430717    2.136825    0.707240 H         1 <1>         0.029729 
     35 H          -3.785460    0.325493   -0.821704 H         1 <1>         0.064016 
     36 H          -2.601002   -0.969724   -2.368421 H         1 <1>         0.053520 
     37 H          -1.280526   -2.139307   -1.855067 H         1 <1>         0.053520 
     38 H          -3.726052   -0.592124    1.867040 H         1 <1>         0.210218 
@<TRIPOS>BOND
     1   10    1 2    
     2   15    2 1    
     3    2   38 1    
     4    4    3 1    
     5    6    3 1    
     6    3    8 1    
     7    3    9 1    
     8    5    4 1    
     9    4    7 1    
    10    4   17 1    
    11    5    6 1    
    12   10    5 1    
    13    5   18 1    
    14    6   19 1    
    15    6   20 1    
    16    7   11 1    
    17    7   21 1    
    18    7   22 1    
    19    8   23 1    
    20    8   24 1    
    21    8   25 1    
    22    9   26 1    
    23    9   27 1    
    24    9   28 1    
    25   12   10 1    
    26   11   14 1    
    27   11   29 1    
    28   11   30 1    
    29   13   12 1    
    30   12   31 1    
    31   12   32 1    
    32   13   15 1    
    33   13   33 1    
    34   13   34 1    
    35   14   15 1    
    36   14   16 2    
    37   15   35 1    
    38   16   36 1    
    39   16   37 1    
@<TRIPOS>SUBSTRUCTURE
     1 ****        3 TEMP              0 ****  ****    0 ROOT 
@<TRIPOS>NORMAL
@<TRIPOS>FF_PBC
FORCE_FIELD_SETUP_FEATURE Force Field Setup information
v1.0  0 0.000000 0.000000 0.000000 0.000000 0.000000 0.000000 NONE 0 0 0 0 1 0 0 0 0 0 0 0 0
