@<TRIPOS>MOLECULE
MOL000261
   26    27     1     1     0
SMALL
GASTEIGER


@<TRIPOS>ATOM
      1 C          -1.398327    1.300137    0.251085 C.ar      1 <1>         0.138830 
      2 C          -1.709137   -0.072461    0.598694 C.ar      1 <1>         0.111844 
      3 C          -0.120391    1.730420   -0.046376 C.ar      1 <1>         0.108581 
      4 O          -2.529839    2.091609    0.265361 O.3       1 <1>        -0.312463 
      5 C          -0.770965   -1.058878    0.664411 C.ar      1 <1>        -0.025394 
      6 O          -3.053445   -0.240879    0.853607 O.3       1 <1>        -0.314954 
      7 C           0.956353    0.702054    0.002763 C.ar      1 <1>        -0.025506 
      8 O           0.119106    3.072439   -0.374075 O.3       1 <1>        -0.345244 
      9 C          -3.539221    1.029051    0.303916 C.3       1 <1>         0.160143 
     10 C           0.633459   -0.683202    0.356143 C.ar      1 <1>        -0.038608 
     11 C           1.447671    3.535673   -0.661618 C.3       1 <1>         0.043137 
     12 C           1.716886   -1.763880    0.415112 C.3       1 <1>        -0.009566 
     13 C           1.401075   -2.811766   -0.623263 C.2       1 <1>        -0.086799 
     14 C           1.121687   -4.085266   -0.318793 C.2       1 <1>        -0.102320 
     15 H          -1.044416   -2.073687    0.930499 H         1 <1>         0.064697 
     16 H           1.983015    0.962369   -0.220474 H         1 <1>         0.064695 
     17 H          -4.439663    1.366915    0.839213 H         1 <1>         0.087952 
     18 H          -3.828603    0.830962   -0.742844 H         1 <1>         0.087952 
     19 H           1.388161    4.612106   -0.879637 H         1 <1>         0.052871 
     20 H           2.111115    3.393206    0.205165 H         1 <1>         0.052871 
     21 H           1.861420    3.025518   -1.544890 H         1 <1>         0.052871 
     22 H           2.712831   -1.344583    0.205395 H         1 <1>         0.035545 
     23 H           1.730209   -2.178630    1.434956 H         1 <1>         0.035545 
     24 H           1.400870   -2.504597   -1.670828 H         1 <1>         0.056955 
     25 H           0.898448   -4.806507   -1.105522 H         1 <1>         0.053184 
     26 H           1.107852   -4.438657    0.711890 H         1 <1>         0.053184 
@<TRIPOS>BOND
     1    1    2 1    
     2    1    3 2    
     3    1    4 1    
     4    2    5 2    
     5    2    6 1    
     6    3    7 1    
     7    3    8 1    
     8    4    9 1    
     9    5   10 1    
    10    5   15 1    
    11    6    9 1    
    12    7   10 2    
    13    7   16 1    
    14    8   11 1    
    15    9   17 1    
    16    9   18 1    
    17   10   12 1    
    18   11   19 1    
    19   11   20 1    
    20   11   21 1    
    21   12   13 1    
    22   12   22 1    
    23   12   23 1    
    24   13   14 2    
    25   13   24 1    
    26   14   25 1    
    27   14   26 1    
@<TRIPOS>SUBSTRUCTURE
     1 ****        1 TEMP              0 ****  ****    0 ROOT 
@<TRIPOS>NORMAL
@<TRIPOS>FF_PBC
FORCE_FIELD_SETUP_FEATURE Force Field Setup information
v1.0  0 0.000000 0.000000 0.000000 0.000000 0.000000 0.000000 NONE 0 0 0 0 1 0 0 0 0 0 0 0 0
