@<TRIPOS>MOLECULE
MOL001932
   77    83     1     1     0
SMALL
GASTEIGER


@<TRIPOS>ATOM
      1 O           2.930889   -1.918195   -2.015840 O.3       1 <1>        -0.341257 
      2 O           3.545870   -4.046823   -1.308142 O.3       1 <1>        -0.319183 
      3 O           0.142420   -1.299631    0.202749 O.3       1 <1>        -0.338511 
      4 O           1.968093   -5.795412   -0.868593 O.3       1 <1>        -0.364049 
      5 O           4.895851   -1.643704    1.590810 O.3       1 <1>        -0.310595 
      6 O          -1.271490    0.210193   -0.231584 O.3       1 <1>        -0.340484 
      7 O          -0.951457   -1.163421    2.453801 O.3       1 <1>        -0.384104 
      8 O          -0.558274    2.523372    2.174036 O.3       1 <1>        -0.386401 
      9 O           6.950559   -1.374036    0.859485 O.2       1 <1>        -0.259226 
     10 O          -3.300823    0.022134    1.948907 O.3       1 <1>        -0.386488 
     11 O          -2.342986    2.977883   -1.728441 O.3       1 <1>        -0.308753 
     12 O          -4.106538    3.403308   -2.971917 O.2       1 <1>        -0.259223 
     13 O          -5.778353    4.627143    2.508685 O.3       1 <1>        -0.357199 
     14 O          -7.650301    0.787315    0.087404 O.3       1 <1>        -0.357199 
     15 O          -7.642231    2.541976    2.344349 O.3       1 <1>        -0.355395 
     16 C           2.824937   -2.324182    0.218183 C.3       1 <1>         0.085034 
     17 C           1.383113   -1.891031   -0.234378 C.3       1 <1>         0.114556 
     18 C           2.269829   -3.739447    0.468669 C.3       1 <1>         0.031032 
     19 C           1.539044   -2.162413   -1.755676 C.3       1 <1>         0.104258 
     20 C           0.918508   -3.100911    0.667950 C.3       1 <1>        -0.011576 
     21 C           2.223616   -4.389453   -0.944997 C.3       1 <1>         0.176637 
     22 C           3.671760   -2.641837   -1.041550 C.3       1 <1>         0.174031 
     23 C           1.312256   -3.672535   -1.991982 C.3       1 <1>         0.033329 
     24 C           3.469823   -1.487780    1.367516 C.3       1 <1>         0.070836 
     25 C           0.769888   -1.195157   -2.673742 C.3       1 <1>        -0.032789 
     26 C          -0.046312    0.075066    0.533667 C.3       1 <1>         0.188670 
     27 C          -0.312572    0.076544    2.068850 C.3       1 <1>         0.134133 
     28 C           5.776560   -1.063148    0.737529 C.2       1 <1>         0.293829 
     29 C          -1.204977    1.279948    2.462394 C.3       1 <1>         0.114062 
     30 C          -2.201619    1.257816    0.142112 C.3       1 <1>         0.113861 
     31 C          -2.534236    1.214134    1.665873 C.3       1 <1>         0.111922 
     32 C           5.490551   -0.085282   -0.382071 C.ar      1 <1>         0.046475 
     33 C          -1.832223    2.669238   -0.407903 C.3       1 <1>         0.086172 
     34 C           6.022354   -0.371974   -1.744152 C.ar      1 <1>        -0.048875 
     35 C           4.759576    1.109554   -0.201413 C.ar      1 <1>        -0.048875 
     36 C           5.726498    0.464956   -2.832814 C.ar      1 <1>        -0.061020 
     37 C           4.439730    1.986230   -1.352163 C.ar      1 <1>        -0.061020 
     38 C           4.900393    1.672610   -2.638213 C.ar      1 <1>        -0.061719 
     39 C          -3.677789    3.158160   -1.860343 C.2       1 <1>         0.294052 
     40 C          -4.711169    3.055151   -0.757891 C.ar      1 <1>         0.051495 
     41 C          -5.708470    1.961950   -0.844815 C.ar      1 <1>        -0.016369 
     42 C          -4.756210    3.962792    0.318072 C.ar      1 <1>        -0.016369 
     43 C          -5.752942    3.775075    1.402503 C.ar      1 <1>         0.105520 
     44 C          -6.687385    1.800930    0.162600 C.ar      1 <1>         0.105520 
     45 C          -6.699710    2.721344    1.327560 C.ar      1 <1>         0.132457 
     46 H           2.747274   -4.323757    1.276523 H         1 <1>         0.036223 
     47 H           0.059107   -3.712998    0.363162 H         1 <1>         0.029866 
     48 H           0.815932   -2.901461    1.756165 H         1 <1>         0.029866 
     49 H           4.747152   -2.454831   -1.038037 H         1 <1>         0.091844 
     50 H           0.245965   -3.933593   -1.895830 H         1 <1>         0.034596 
     51 H           1.638090   -3.961251   -3.001948 H         1 <1>         0.034596 
     52 H           3.016016   -1.838060    2.306150 H         1 <1>         0.057419 
     53 H           3.186824   -0.433580    1.270059 H         1 <1>         0.057419 
     54 H          -0.312874   -1.257557   -2.511416 H         1 <1>         0.025826 
     55 H           1.111317   -0.174442   -2.445810 H         1 <1>         0.025826 
     56 H           0.993253   -1.409285   -3.728637 H         1 <1>         0.025826 
     57 H           1.110150   -5.958174   -0.490986 H         1 <1>         0.212768 
     58 H           0.724658    0.785029    0.193987 H         1 <1>         0.093762 
     59 H           0.653287    0.135385    2.590366 H         1 <1>         0.067095 
     60 H          -1.424759    1.235943    3.541631 H         1 <1>         0.064758 
     61 H          -3.115022    0.955344   -0.387339 H         1 <1>         0.064694 
     62 H          -3.171000    2.069038    1.951815 H         1 <1>         0.064673 
     63 H          -1.077830   -1.307672    3.385026 H         1 <1>         0.210110 
     64 H          -0.743311    2.680594   -0.517505 H         1 <1>         0.059272 
     65 H          -2.084873    3.482616    0.284525 H         1 <1>         0.059272 
     66 H           0.238677    2.665229    2.674920 H         1 <1>         0.210005 
     67 H          -3.502486   -0.124420    2.868517 H         1 <1>         0.210004 
     68 H           6.654055   -1.239323   -1.906266 H         1 <1>         0.062527 
     69 H           4.427044    1.408713    0.785132 H         1 <1>         0.062527 
     70 H           6.109206    0.235255   -3.825239 H         1 <1>         0.061778 
     71 H           3.840893    2.878443   -1.197360 H         1 <1>         0.061778 
     72 H           4.663756    2.314224   -3.480080 H         1 <1>         0.061759 
     73 H          -5.683431    1.286360   -1.694613 H         1 <1>         0.065181 
     74 H          -4.059479    4.792765    0.350279 H         1 <1>         0.065181 
     75 H          -5.201843    5.379931    2.431355 H         1 <1>         0.217423 
     76 H          -7.597776    0.255101   -0.698501 H         1 <1>         0.217423 
     77 H          -7.553932    3.201136    3.020254 H         1 <1>         0.217501 
@<TRIPOS>BOND
     1   19    1 1    
     2    1   22 1    
     3   21    2 1    
     4   22    2 1    
     5    3   17 1    
     6   26    3 1    
     7   21    4 1    
     8    4   57 1    
     9   24    5 1    
    10    5   28 1    
    11    6   26 1    
    12   30    6 1    
    13   27    7 1    
    14    7   63 1    
    15   29    8 1    
    16    8   66 1    
    17   28    9 2    
    18   31   10 1    
    19   10   67 1    
    20   11   33 1    
    21   39   11 1    
    22   39   12 2    
    23   43   13 1    
    24   13   75 1    
    25   44   14 1    
    26   14   76 1    
    27   45   15 1    
    28   15   77 1    
    29   17   16 1    
    30   16   18 1    
    31   16   22 1    
    32   16   24 1    
    33   17   19 1    
    34   17   20 1    
    35   20   18 1    
    36   18   21 1    
    37   18   46 1    
    38   19   23 1    
    39   19   25 1    
    40   20   47 1    
    41   20   48 1    
    42   23   21 1    
    43   22   49 1    
    44   23   50 1    
    45   23   51 1    
    46   24   52 1    
    47   24   53 1    
    48   25   54 1    
    49   25   55 1    
    50   25   56 1    
    51   26   27 1    
    52   26   58 1    
    53   29   27 1    
    54   27   59 1    
    55   28   32 1    
    56   31   29 1    
    57   29   60 1    
    58   30   31 1    
    59   33   30 1    
    60   30   61 1    
    61   31   62 1    
    62   32   34 1    
    63   32   35 2    
    64   33   64 1    
    65   33   65 1    
    66   34   36 2    
    67   34   68 1    
    68   35   37 1    
    69   35   69 1    
    70   36   38 1    
    71   36   70 1    
    72   37   38 2    
    73   37   71 1    
    74   38   72 1    
    75   40   39 1    
    76   40   41 1    
    77   42   40 2    
    78   41   44 2    
    79   41   73 1    
    80   43   42 1    
    81   42   74 1    
    82   43   45 2    
    83   44   45 1    
@<TRIPOS>SUBSTRUCTURE
     1 ****        3 TEMP              0 ****  ****    0 ROOT 
@<TRIPOS>NORMAL
@<TRIPOS>FF_PBC
FORCE_FIELD_SETUP_FEATURE Force Field Setup information
v1.0  0 0.000000 0.000000 0.000000 0.000000 0.000000 0.000000 NONE 0 0 0 0 1 0 0 0 0 0 0 0 0
