@<TRIPOS>MOLECULE
MOL013357
   81    84     1     1     0
SMALL
GASTEIGER


@<TRIPOS>ATOM
      1 C          -6.055416   -4.627415   -0.446932 C.3       1 <1>         0.073727 
      2 C          -5.929523   -3.140902   -0.830840 C.3       1 <1>        -0.022444 
      3 C          -5.277419   -2.378732    0.347514 C.3       1 <1>        -0.040943 
      4 C          -4.648185   -5.126872   -0.286819 C.2       1 <1>        -0.053705 
      5 C          -3.668225   -4.384080    0.255234 C.2       1 <1>        -0.036795 
      6 C          -2.265265   -4.957864    0.323071 C.3       1 <1>         0.077117 
      7 C          -1.237063   -3.945258   -0.232012 C.3       1 <1>        -0.019587 
      8 C          -1.298475   -2.631117    0.582616 C.3       1 <1>        -0.031448 
      9 C          -0.255476   -1.600175    0.057229 C.3       1 <1>        -0.032160 
     10 C           1.223656   -2.033397   -0.018552 C.3       1 <1>        -0.049168 
     11 C           1.972358   -0.679493   -0.193309 C.3       1 <1>        -0.049187 
     12 C           0.928157    0.462921    0.035588 C.3       1 <1>        -0.032778 
     13 C           1.607638    1.785865    0.547666 C.3       1 <1>        -0.040533 
     14 C           2.719619    2.209872   -0.476738 C.3       1 <1>        -0.049933 
     15 C           3.259764    3.661880   -0.347329 C.3       1 <1>        -0.049734 
     16 C           4.548893    3.997540   -1.169508 C.3       1 <1>        -0.038944 
     17 C           4.489851    3.562685   -2.673780 C.3       1 <1>        -0.052828 
     18 C           4.985931    2.118480   -2.976494 C.3       1 <1>        -0.065017 
     19 C           4.924876    5.521399   -1.057421 C.3       1 <1>        -0.043894 
     20 C           5.027754    6.016985    0.413845 C.3       1 <1>        -0.062414 
     21 C           3.989763    6.482443   -1.853763 C.3       1 <1>        -0.062414 
     22 C           0.579398    2.928361    0.787943 C.3       1 <1>        -0.062146 
     23 C          -0.205899   -0.256354    0.845724 C.3       1 <1>        -0.025893 
     24 C           0.235478   -0.393971    2.341026 C.3       1 <1>        -0.059038 
     25 C          -1.647956    0.337360    0.738958 C.3       1 <1>        -0.046813 
     26 C          -2.731812   -0.658193    1.247538 C.3       1 <1>        -0.048651 
     27 C          -2.724796   -2.007158    0.458546 C.3       1 <1>        -0.028653 
     28 C          -3.902300   -2.984394    0.832967 C.3       1 <1>        -0.005416 
     29 C          -3.993190   -3.189183    2.379241 C.3       1 <1>        -0.055495 
     30 O          -6.793101   -4.770786    0.778689 O.3       1 <1>        -0.387759 
     31 O          -1.977021   -5.332900    1.681229 O.3       1 <1>        -0.387474 
     32 H          -6.565333   -5.163252   -1.268312 H         1 <1>         0.063753 
     33 H          -6.932598   -2.732535   -1.043279 H         1 <1>         0.029345 
     34 H          -5.314398   -3.035542   -1.740885 H         1 <1>         0.029345 
     35 H          -5.195756   -1.338247    0.003366 H         1 <1>         0.027456 
     36 H          -6.021294   -2.374707    1.160800 H         1 <1>         0.027456 
     37 H          -4.459451   -6.139595   -0.641987 H         1 <1>         0.059800 
     38 H          -2.183312   -5.869043   -0.296771 H         1 <1>         0.064041 
     39 H          -0.233067   -4.393526   -0.164303 H         1 <1>         0.029612 
     40 H          -1.453180   -3.745596   -1.294477 H         1 <1>         0.029612 
     41 H          -1.063394   -2.881997    1.626092 H         1 <1>         0.030744 
     42 H          -0.547968   -1.394591   -0.988853 H         1 <1>         0.030888 
     43 H           1.424177   -2.721880   -0.856167 H         1 <1>         0.026828 
     44 H           1.504557   -2.543413    0.916970 H         1 <1>         0.026828 
     45 H           2.798255   -0.633806    0.534831 H         1 <1>         0.026828 
     46 H           2.410632   -0.600935   -1.202485 H         1 <1>         0.026828 
     47 H           0.483487    0.719849   -0.941202 H         1 <1>         0.030870 
     48 H           2.100638    1.596504    1.516621 H         1 <1>         0.030096 
     49 H           3.578962    1.534800   -0.342840 H         1 <1>         0.026802 
     50 H           2.329095    2.099904   -1.500276 H         1 <1>         0.026802 
     51 H           2.465784    4.350407   -0.668614 H         1 <1>         0.026810 
     52 H           3.467124    3.821518    0.722547 H         1 <1>         0.026810 
     53 H           5.378329    3.437269   -0.703661 H         1 <1>         0.030319 
     54 H           3.470161    3.706815   -3.066094 H         1 <1>         0.026538 
     55 H           5.166968    4.199919   -3.266640 H         1 <1>         0.026538 
     56 H           4.983137    1.949560   -4.065690 H         1 <1>         0.022986 
     57 H           6.018030    1.985539   -2.614926 H         1 <1>         0.022986 
     58 H           4.359600    1.338683   -2.527890 H         1 <1>         0.022986 
     59 H           5.936704    5.632658   -1.489595 H         1 <1>         0.029814 
     60 H           5.507047    7.008180    0.450070 H         1 <1>         0.023242 
     61 H           5.631070    5.322470    1.018578 H         1 <1>         0.023242 
     62 H           4.031186    6.115085    0.870543 H         1 <1>         0.023242 
     63 H           4.376609    7.511799   -1.789015 H         1 <1>         0.023242 
     64 H           3.935160    6.221928   -2.920644 H         1 <1>         0.023242 
     65 H           2.967922    6.486863   -1.448973 H         1 <1>         0.023242 
     66 H           1.059604    3.863568    1.106442 H         1 <1>         0.023250 
     67 H          -0.096576    2.677849    1.610385 H         1 <1>         0.023250 
     68 H          -0.006002    3.120875   -0.123516 H         1 <1>         0.023250 
     69 H           1.280070   -0.715359    2.445003 H         1 <1>         0.023524 
     70 H           0.148821    0.580484    2.840889 H         1 <1>         0.023524 
     71 H          -0.370323   -1.103097    2.915735 H         1 <1>         0.023524 
     72 H          -1.761934    1.250953    1.334266 H         1 <1>         0.027078 
     73 H          -1.874915    0.596448   -0.307390 H         1 <1>         0.027078 
     74 H          -3.702016   -0.145523    1.172806 H         1 <1>         0.026846 
     75 H          -2.566400   -0.848314    2.316565 H         1 <1>         0.026846 
     76 H          -2.877212   -1.769757   -0.607787 H         1 <1>         0.031188 
     77 H          -3.030921   -3.462459    2.829813 H         1 <1>         0.023821 
     78 H          -4.349469   -2.280628    2.886514 H         1 <1>         0.023821 
     79 H          -4.711832   -3.993081    2.605471 H         1 <1>         0.023821 
     80 H          -6.845861   -5.674244    1.071767 H         1 <1>         0.210206 
     81 H          -1.111845   -5.713432    1.795387 H         1 <1>         0.210218 
@<TRIPOS>BOND
     1    1    2 1    
     2    1    4 1    
     3    1   30 1    
     4    1   32 1    
     5    2    3 1    
     6    2   33 1    
     7    2   34 1    
     8    3   28 1    
     9    3   35 1    
    10    3   36 1    
    11    4    5 2    
    12    4   37 1    
    13    5    6 1    
    14    5   28 1    
    15    6    7 1    
    16    6   31 1    
    17    6   38 1    
    18    7    8 1    
    19    7   39 1    
    20    7   40 1    
    21    8    9 1    
    22    8   27 1    
    23    8   41 1    
    24    9   10 1    
    25    9   23 1    
    26    9   42 1    
    27   10   11 1    
    28   10   43 1    
    29   10   44 1    
    30   11   12 1    
    31   11   45 1    
    32   11   46 1    
    33   12   13 1    
    34   12   23 1    
    35   12   47 1    
    36   13   14 1    
    37   13   22 1    
    38   13   48 1    
    39   14   15 1    
    40   14   49 1    
    41   14   50 1    
    42   15   16 1    
    43   15   51 1    
    44   15   52 1    
    45   16   17 1    
    46   16   19 1    
    47   16   53 1    
    48   17   18 1    
    49   17   54 1    
    50   17   55 1    
    51   18   56 1    
    52   18   57 1    
    53   18   58 1    
    54   19   20 1    
    55   19   21 1    
    56   19   59 1    
    57   20   60 1    
    58   20   61 1    
    59   20   62 1    
    60   21   63 1    
    61   21   64 1    
    62   21   65 1    
    63   22   66 1    
    64   22   67 1    
    65   22   68 1    
    66   23   24 1    
    67   23   25 1    
    68   24   69 1    
    69   24   70 1    
    70   24   71 1    
    71   25   26 1    
    72   25   72 1    
    73   25   73 1    
    74   26   27 1    
    75   26   74 1    
    76   26   75 1    
    77   27   28 1    
    78   27   76 1    
    79   28   29 1    
    80   29   77 1    
    81   29   78 1    
    82   29   79 1    
    83   30   80 1    
    84   31   81 1    
@<TRIPOS>SUBSTRUCTURE
     1 ****        1 TEMP              0 ****  ****    0 ROOT 
@<TRIPOS>NORMAL
@<TRIPOS>FF_PBC
FORCE_FIELD_SETUP_FEATURE Force Field Setup information
v1.0  0 0.000000 0.000000 0.000000 0.000000 0.000000 0.000000 NONE 0 0 0 0 1 0 0 0 0 0 0 0 0
