@<TRIPOS>MOLECULE
MOL012977
   81    84     1     1     0
SMALL
GASTEIGER


@<TRIPOS>ATOM
      1 C           5.320078    2.221853   -5.138175 C.ar      1 <1>         0.072598 
      2 C           5.929069    1.221413   -4.232493 C.ar      1 <1>        -0.031682 
      3 C           5.140029    0.528405   -3.298088 C.ar      1 <1>        -0.056081 
      4 C           3.677594    0.771083   -3.189182 C.ar      1 <1>        -0.045256 
      5 C           3.100892    1.738421   -4.070578 C.ar      1 <1>        -0.056081 
      6 C           3.938206    2.465782   -5.055302 C.ar      1 <1>        -0.031682 
      7 O           6.129357    2.900851   -6.052632 O.3       1 <1>        -0.359832 
      8 C           2.924864   -0.051742   -2.116699 C.3       1 <1>        -0.003514 
      9 C           1.367742    0.045089   -2.013156 C.3       1 <1>         0.090963 
     10 N           0.568428   -0.707879   -3.027129 N.3       1 <1>        -0.297375 
     11 C           0.773324   -0.108388   -0.611647 C.2       1 <1>         0.233803 
     12 N           0.836769   -1.186995    0.221207 N.am      1 <1>        -0.286020 
     13 C           0.196226   -1.108300    1.532047 C.3       1 <1>         0.128701 
     14 C           0.760916   -2.381268    2.264998 C.3       1 <1>         0.093591 
     15 C           1.905533   -2.854228    1.336735 C.3       1 <1>        -0.007985 
     16 C           1.486837   -2.445801   -0.096024 C.3       1 <1>         0.018031 
     17 O           1.313354   -2.223587    3.606479 O.3       1 <1>        -0.339075 
     18 C           0.728236   -1.234025    4.397666 C.ar      1 <1>         0.077352 
     19 C          -0.710038   -0.951162    4.243996 C.ar      1 <1>        -0.022008 
     20 C          -1.182849    0.254361    4.541810 C.ar      1 <1>         0.008563 
     21 C          -0.417878    1.124738    5.470880 C.ar      1 <1>         0.083127 
     22 C           0.892613    0.718516    5.849584 C.ar      1 <1>        -0.028673 
     23 C           1.484895   -0.482754    5.210242 C.ar      1 <1>        -0.029191 
     24 C          -0.357286    0.090050   -3.870887 C.3       1 <1>        -0.012324 
     25 C          -1.324368   -1.077591    1.360190 C.2       1 <1>         0.236729 
     26 N          -1.977643    0.074916    1.052491 N.am      1 <1>        -0.302128 
     27 C          -3.447771    0.108390    0.905979 C.3       1 <1>         0.102250 
     28 O          -1.946494   -2.116456    1.510175 O.2       1 <1>        -0.273659 
     29 O           0.166269    0.868054   -0.192729 O.2       1 <1>        -0.273847 
     30 C          -2.449581    0.612041    3.801105 C.2       1 <1>        -0.038153 
     31 C          -2.658914    1.857445    3.365541 C.2       1 <1>        -0.003049 
     32 N          -3.578241    2.179530    2.424620 N.am      1 <1>        -0.290407 
     33 C          -4.036790    1.447736    1.371816 C.2       1 <1>         0.237368 
     34 O          -4.945304    1.923484    0.709541 O.2       1 <1>        -0.273437 
     35 C          -3.863842   -0.200437   -0.577077 C.3       1 <1>        -0.017135 
     36 C          -2.912801   -1.221483   -1.281135 C.3       1 <1>        -0.051175 
     37 C          -3.296379   -1.533655   -2.753850 C.3       1 <1>        -0.064964 
     38 O          -0.999855    2.291772    5.977061 O.3       1 <1>        -0.347323 
     39 C          -0.222373    3.503138    5.961106 C.3       1 <1>         0.043051 
     40 C           1.150921   -1.884749   -3.715810 C.3       1 <1>        -0.012324 
     41 C          -5.338910   -0.705918   -0.647580 C.3       1 <1>        -0.060281 
     42 H           6.994336    1.028780   -4.297529 H         1 <1>         0.064328 
     43 H           5.614280   -0.196566   -2.643385 H         1 <1>         0.062108 
     44 H           2.048073    1.979644   -4.053109 H         1 <1>         0.062108 
     45 H           3.469716    3.191223   -5.712338 H         1 <1>         0.064328 
     46 H           5.699885    3.627964   -6.489482 H         1 <1>         0.217313 
     47 H           3.251071   -1.083705   -2.285477 H         1 <1>         0.033308 
     48 H           3.339901    0.276037   -1.150693 H         1 <1>         0.033308 
     49 H           1.209582    1.118376   -2.191898 H         1 <1>         0.056160 
     50 H           0.553532   -0.199586    2.039923 H         1 <1>         0.062298 
     51 H           0.010538   -3.187647    2.296446 H         1 <1>         0.062512 
     52 H           2.132229   -3.928721    1.436795 H         1 <1>         0.030620 
     53 H           2.807024   -2.279930    1.608966 H         1 <1>         0.030620 
     54 H           2.380693   -2.398884   -0.724127 H         1 <1>         0.046548 
     55 H           0.755973   -3.154406   -0.518706 H         1 <1>         0.046548 
     56 H          -1.343331   -1.713702    3.814749 H         1 <1>         0.064999 
     57 H           1.468557    1.276990    6.576778 H         1 <1>         0.064426 
     58 H           2.532209   -0.723204    5.358926 H         1 <1>         0.064408 
     59 H          -0.928747    0.805988   -3.259684 H         1 <1>         0.039072 
     60 H           0.201282    0.639074   -4.640901 H         1 <1>         0.039072 
     61 H          -1.081671   -0.551719   -4.389819 H         1 <1>         0.039072 
     62 H          -1.458420    0.913762    0.871341 H         1 <1>         0.149518 
     63 H          -3.920562   -0.680727    1.508472 H         1 <1>         0.059722 
     64 H          -3.150344   -0.179144    3.558382 H         1 <1>         0.063669 
     65 H          -2.040590    2.662183    3.765382 H         1 <1>         0.078218 
     66 H          -3.889209    3.133768    2.427678 H         1 <1>         0.154295 
     67 H          -3.776486    0.738799   -1.150883 H         1 <1>         0.032060 
     68 H          -1.887076   -0.815517   -1.292022 H         1 <1>         0.026590 
     69 H          -2.907188   -2.177010   -0.734103 H         1 <1>         0.026590 
     70 H          -2.524448   -2.170579   -3.213964 H         1 <1>         0.022987 
     71 H          -4.246803   -2.082382   -2.819298 H         1 <1>         0.022987 
     72 H          -3.383701   -0.603477   -3.335290 H         1 <1>         0.022987 
     73 H          -0.884543    4.330773    6.253380 H         1 <1>         0.052870 
     74 H           0.614831    3.473509    6.673008 H         1 <1>         0.052870 
     75 H           0.164057    3.709258    4.951282 H         1 <1>         0.052870 
     76 H           1.545988   -2.608377   -2.990790 H         1 <1>         0.039072 
     77 H           1.956086   -1.565489   -4.395466 H         1 <1>         0.039072 
     78 H           0.386591   -2.414715   -4.305892 H         1 <1>         0.039072 
     79 H          -5.726797   -0.656191   -1.676586 H         1 <1>         0.023311 
     80 H          -6.017187   -0.108949   -0.021626 H         1 <1>         0.023311 
     81 H          -5.393626   -1.749105   -0.298959 H         1 <1>         0.023311 
@<TRIPOS>BOND
     1    1    2 1    
     2    1    6 2    
     3    1    7 1    
     4    2    3 2    
     5    2   42 1    
     6    3    4 1    
     7    3   43 1    
     8    4    5 2    
     9    4    8 1    
    10    5    6 1    
    11    5   44 1    
    12    6   45 1    
    13    7   46 1    
    14    8    9 1    
    15    8   47 1    
    16    8   48 1    
    17    9   10 1    
    18    9   11 1    
    19    9   49 1    
    20   10   24 1    
    21   10   40 1    
    22   11   12 1    
    23   11   29 2    
    24   12   13 1    
    25   12   16 1    
    26   13   14 1    
    27   13   25 1    
    28   13   50 1    
    29   14   15 1    
    30   14   17 1    
    31   14   51 1    
    32   15   16 1    
    33   15   52 1    
    34   15   53 1    
    35   16   54 1    
    36   16   55 1    
    37   17   18 1    
    38   18   19 1    
    39   18   23 2    
    40   19   20 2    
    41   19   56 1    
    42   20   21 1    
    43   20   30 1    
    44   21   22 2    
    45   21   38 1    
    46   22   23 1    
    47   22   57 1    
    48   23   58 1    
    49   24   59 1    
    50   24   60 1    
    51   24   61 1    
    52   25   26 1    
    53   25   28 2    
    54   26   27 1    
    55   26   62 1    
    56   27   33 1    
    57   27   35 1    
    58   27   63 1    
    59   30   31 2    
    60   30   64 1    
    61   31   32 1    
    62   31   65 1    
    63   32   33 1    
    64   32   66 1    
    65   33   34 2    
    66   35   36 1    
    67   35   41 1    
    68   35   67 1    
    69   36   37 1    
    70   36   68 1    
    71   36   69 1    
    72   37   70 1    
    73   37   71 1    
    74   37   72 1    
    75   38   39 1    
    76   39   73 1    
    77   39   74 1    
    78   39   75 1    
    79   40   76 1    
    80   40   77 1    
    81   40   78 1    
    82   41   79 1    
    83   41   80 1    
    84   41   81 1    
@<TRIPOS>SUBSTRUCTURE
     1 ****        1 TEMP              0 ****  ****    0 ROOT 
@<TRIPOS>NORMAL
@<TRIPOS>FF_PBC
FORCE_FIELD_SETUP_FEATURE Force Field Setup information
v1.0  0 0.000000 0.000000 0.000000 0.000000 0.000000 0.000000 NONE 0 0 0 0 1 0 0 0 0 0 0 0 0
