@<TRIPOS>MOLECULE
MOL005075
   31    30     1     1     0
SMALL
GASTEIGER


@<TRIPOS>ATOM
      1 C           0.660850   -1.439669   -1.218108 C.3       1 <1>        -0.041802 
      2 C          -0.628658   -0.604295   -0.934451 C.3       1 <1>        -0.050102 
      3 C           1.909650   -0.530196   -1.435476 C.3       1 <1>        -0.027128 
      4 C           0.904995   -2.513987   -0.119842 C.3       1 <1>        -0.062343 
      5 C          -0.621843    0.184779    0.406696 C.3       1 <1>        -0.049139 
      6 C           3.147342   -1.288524   -1.981777 C.3       1 <1>         0.044448 
      7 C          -1.926458    1.012376    0.576756 C.3       1 <1>        -0.032248 
      8 O           4.170010   -0.319058   -2.276389 O.3       1 <1>        -0.394998 
      9 C          -2.049881    1.851971    1.834664 C.2       1 <1>        -0.079693 
     10 C          -3.281241    2.730375    1.904304 C.3       1 <1>        -0.044040 
     11 C          -1.154549    1.842726    2.834522 C.2       1 <1>        -0.099710 
     12 H           0.472494   -1.975375   -2.166426 H         1 <1>         0.029884 
     13 H          -0.777780    0.105602   -1.764906 H         1 <1>         0.026795 
     14 H          -1.495589   -1.286248   -0.929176 H         1 <1>         0.026795 
     15 H           2.206238   -0.040307   -0.495231 H         1 <1>         0.028982 
     16 H           1.658618    0.256606   -2.165651 H         1 <1>         0.028982 
     17 H           1.639377   -3.261582   -0.455759 H         1 <1>         0.023243 
     18 H          -0.029703   -3.048577    0.111203 H         1 <1>         0.023243 
     19 H           1.283676   -2.051495    0.804068 H         1 <1>         0.023243 
     20 H          -0.540424   -0.525350    1.244429 H         1 <1>         0.026838 
     21 H           0.232823    0.878101    0.432384 H         1 <1>         0.026838 
     22 H           2.873960   -1.838360   -2.898439 H         1 <1>         0.055705 
     23 H           3.524269   -2.004303   -1.232416 H         1 <1>         0.055705 
     24 H          -2.010184    1.693503   -0.285445 H         1 <1>         0.030981 
     25 H          -2.785099    0.322882    0.549994 H         1 <1>         0.030981 
     26 H           4.967493   -0.706048   -2.625963 H         1 <1>         0.209395 
     27 H          -4.184263    2.105972    1.828094 H         1 <1>         0.027427 
     28 H          -3.344816    3.308467    2.838774 H         1 <1>         0.027427 
     29 H          -3.272936    3.442255    1.064906 H         1 <1>         0.027427 
     30 H          -1.293892    2.465818    3.716875 H         1 <1>         0.053432 
     31 H          -0.254582    1.232038    2.837687 H         1 <1>         0.053432 
@<TRIPOS>BOND
     1    1    2 1    
     2    1    3 1    
     3    1    4 1    
     4    1   12 1    
     5    2    5 1    
     6    2   13 1    
     7    2   14 1    
     8    3    6 1    
     9    3   15 1    
    10    3   16 1    
    11    4   17 1    
    12    4   18 1    
    13    4   19 1    
    14    5    7 1    
    15    5   20 1    
    16    5   21 1    
    17    6    8 1    
    18    6   22 1    
    19    6   23 1    
    20    7    9 1    
    21    7   24 1    
    22    7   25 1    
    23    8   26 1    
    24    9   10 1    
    25    9   11 2    
    26   10   27 1    
    27   10   28 1    
    28   10   29 1    
    29   11   30 1    
    30   11   31 1    
@<TRIPOS>SUBSTRUCTURE
     1 ****        1 TEMP              0 ****  ****    0 ROOT 
@<TRIPOS>NORMAL
@<TRIPOS>FF_PBC
FORCE_FIELD_SETUP_FEATURE Force Field Setup information
v1.0  0 0.000000 0.000000 0.000000 0.000000 0.000000 0.000000 NONE 0 0 0 0 1 0 0 0 0 0 0 0 0
