@<TRIPOS>MOLECULE
MOL002205
  116   115     1     1     0
SMALL
GASTEIGER


@<TRIPOS>ATOM
      1 C          -0.680206    0.374896   -0.000117 C.3       1 <1>        -0.053057 
      2 C           0.680206   -0.374896    0.000117 C.3       1 <1>        -0.053057 
      3 C          -0.477444    1.914925    0.000118 C.3       1 <1>        -0.053057 
      4 C           0.477444   -1.914925   -0.000118 C.3       1 <1>        -0.053057 
      5 C          -1.837647    2.665122   -0.000117 C.3       1 <1>        -0.053057 
      6 C           1.837647   -2.665122    0.000117 C.3       1 <1>        -0.053057 
      7 C          -1.633871    4.205031    0.000117 C.3       1 <1>        -0.053057 
      8 C           1.633871   -4.205031   -0.000117 C.3       1 <1>        -0.053057 
      9 C          -2.993202    4.956777   -0.000117 C.3       1 <1>        -0.053057 
     10 C           2.993202   -4.956777    0.000117 C.3       1 <1>        -0.053057 
     11 C          -2.787432    6.496481    0.000116 C.3       1 <1>        -0.053057 
     12 C           2.787432   -6.496481   -0.000116 C.3       1 <1>        -0.053057 
     13 C          -4.145901    7.249742   -0.000116 C.3       1 <1>        -0.053057 
     14 C           4.145901   -7.249742    0.000116 C.3       1 <1>        -0.053057 
     15 C          -3.939412    8.789399    0.000119 C.3       1 <1>        -0.053057 
     16 C           3.939412   -8.789399   -0.000119 C.3       1 <1>        -0.053057 
     17 C          -5.298085    9.542424   -0.000116 C.3       1 <1>        -0.053057 
     18 C           5.298085   -9.542424    0.000116 C.3       1 <1>        -0.053057 
     19 C          -5.093252   11.082287    0.000117 C.3       1 <1>        -0.053057 
     20 C           5.093252  -11.082287   -0.000117 C.3       1 <1>        -0.053057 
     21 C          -6.452774   11.833937   -0.000118 C.3       1 <1>        -0.053057 
     22 C           6.452774  -11.833937    0.000118 C.3       1 <1>        -0.053057 
     23 C          -6.249070   13.373980    0.000117 C.3       1 <1>        -0.053057 
     24 C           6.249070  -13.373980   -0.000117 C.3       1 <1>        -0.053057 
     25 C          -7.608832   14.125146   -0.000117 C.3       1 <1>        -0.053057 
     26 C           7.608832  -14.125146    0.000117 C.3       1 <1>        -0.053057 
     27 C          -7.406037   15.665365    0.000121 C.3       1 <1>        -0.053057 
     28 C           7.406037  -15.665365   -0.000121 C.3       1 <1>        -0.053057 
     29 C          -8.766662   16.414974   -0.000115 C.3       1 <1>        -0.053057 
     30 C           8.766662  -16.414974    0.000115 C.3       1 <1>        -0.053057 
     31 C          -8.566929   17.955552    0.000120 C.3       1 <1>        -0.053065 
     32 C           8.566929  -17.955552   -0.000120 C.3       1 <1>        -0.053065 
     33 C          -9.929382   18.701823   -0.000116 C.3       1 <1>        -0.053306 
     34 C           9.929382  -18.701823    0.000116 C.3       1 <1>        -0.053306 
     35 C          -9.732711   20.242443    0.000119 C.3       1 <1>        -0.055911 
     36 C           9.732711  -20.242443   -0.000119 C.3       1 <1>        -0.055911 
     37 C         -11.094610   20.984690   -0.000116 C.3       1 <1>        -0.065276 
     38 C          11.094610  -20.984690    0.000116 C.3       1 <1>        -0.065276 
     39 H          -1.256597    0.083572   -0.893638 H         1 <1>         0.026528 
     40 H          -1.257021    0.083356    0.893059 H         1 <1>         0.026528 
     41 H           1.256597   -0.083572    0.893638 H         1 <1>         0.026528 
     42 H           1.257021   -0.083356   -0.893059 H         1 <1>         0.026528 
     43 H           0.099016    2.206163    0.893626 H         1 <1>         0.026528 
     44 H           0.099442    2.206377   -0.893046 H         1 <1>         0.026528 
     45 H          -0.099016   -2.206163   -0.893626 H         1 <1>         0.026528 
     46 H          -0.099442   -2.206377    0.893046 H         1 <1>         0.026528 
     47 H          -2.414148    2.374017   -0.893640 H         1 <1>         0.026528 
     48 H          -2.414573    2.373803    0.893061 H         1 <1>         0.026528 
     49 H           2.414148   -2.374017    0.893640 H         1 <1>         0.026528 
     50 H           2.414573   -2.373803   -0.893061 H         1 <1>         0.026528 
     51 H          -1.057180    4.495780    0.893634 H         1 <1>         0.026528 
     52 H          -1.056756    4.495993   -0.893057 H         1 <1>         0.026528 
     53 H           1.057180   -4.495780   -0.893634 H         1 <1>         0.026528 
     54 H           1.056756   -4.495993    0.893057 H         1 <1>         0.026528 
     55 H          -3.570049    4.666310   -0.893636 H         1 <1>         0.026528 
     56 H          -3.570471    4.666097    0.893061 H         1 <1>         0.026528 
     57 H           3.570049   -4.666310    0.893636 H         1 <1>         0.026528 
     58 H           3.570471   -4.666097   -0.893061 H         1 <1>         0.026528 
     59 H          -2.210425    6.786596    0.893637 H         1 <1>         0.026528 
     60 H          -2.210003    6.786809   -0.893062 H         1 <1>         0.026528 
     61 H           2.210425   -6.786596   -0.893637 H         1 <1>         0.026528 
     62 H           2.210003   -6.786809    0.893062 H         1 <1>         0.026528 
     63 H          -4.722948    6.959670   -0.893628 H         1 <1>         0.026528 
     64 H          -4.723372    6.959455    0.893054 H         1 <1>         0.026528 
     65 H           4.722948   -6.959670    0.893628 H         1 <1>         0.026528 
     66 H           4.723372   -6.959455   -0.893054 H         1 <1>         0.026528 
     67 H          -3.362317    9.079407    0.893619 H         1 <1>         0.026528 
     68 H          -3.361892    9.079620   -0.893037 H         1 <1>         0.026528 
     69 H           3.362317   -9.079407   -0.893619 H         1 <1>         0.026528 
     70 H           3.361892   -9.079620    0.893037 H         1 <1>         0.026528 
     71 H          -5.874942    9.252013   -0.893627 H         1 <1>         0.026528 
     72 H          -5.875366    9.251802    0.893052 H         1 <1>         0.026528 
     73 H           5.874942   -9.252013    0.893627 H         1 <1>         0.026528 
     74 H           5.875366   -9.251802   -0.893052 H         1 <1>         0.026528 
     75 H          -4.516483   11.372911    0.893625 H         1 <1>         0.026528 
     76 H          -4.516060   11.373124   -0.893050 H         1 <1>         0.026528 
     77 H           4.516483  -11.372911   -0.893625 H         1 <1>         0.026528 
     78 H           4.516060  -11.373124    0.893050 H         1 <1>         0.026528 
     79 H          -7.029447   11.543027   -0.893603 H         1 <1>         0.026528 
     80 H          -7.029871   11.542812    0.893024 H         1 <1>         0.026528 
     81 H           7.029447  -11.543027    0.893603 H         1 <1>         0.026528 
     82 H           7.029871  -11.542812   -0.893024 H         1 <1>         0.026528 
     83 H          -5.672495   13.664918    0.893634 H         1 <1>         0.026528 
     84 H          -5.672072   13.665133   -0.893057 H         1 <1>         0.026528 
     85 H           5.672495  -13.664918   -0.893634 H         1 <1>         0.026528 
     86 H           5.672072  -13.665133    0.893057 H         1 <1>         0.026528 
     87 H          -8.185358   13.833937   -0.893600 H         1 <1>         0.026528 
     88 H          -8.185786   13.833718    0.893017 H         1 <1>         0.026528 
     89 H           8.185358  -13.833937    0.893600 H         1 <1>         0.026528 
     90 H           8.185786  -13.833718   -0.893017 H         1 <1>         0.026528 
     91 H          -6.829687   15.956804    0.893632 H         1 <1>         0.026528 
     92 H          -6.829260   15.957022   -0.893045 H         1 <1>         0.026528 
     93 H           6.829687  -15.956804   -0.893632 H         1 <1>         0.026528 
     94 H           6.829260  -15.957022    0.893045 H         1 <1>         0.026528 
     95 H          -9.342784   16.122988   -0.893596 H         1 <1>         0.026528 
     96 H          -9.343208   16.122773    0.893024 H         1 <1>         0.026528 
     97 H           9.342784  -16.122988    0.893596 H         1 <1>         0.026528 
     98 H           9.343208  -16.122773   -0.893024 H         1 <1>         0.026528 
     99 H          -7.991312   18.248451    0.893644 H         1 <1>         0.026528 
    100 H          -7.990883   18.248667   -0.893053 H         1 <1>         0.026528 
    101 H           7.991312  -18.248451   -0.893644 H         1 <1>         0.026528 
    102 H           7.990883  -18.248667    0.893053 H         1 <1>         0.026528 
    103 H         -10.505237   18.409420   -0.893647 H         1 <1>         0.026520 
    104 H         -10.505665   18.409203    0.893067 H         1 <1>         0.026520 
    105 H          10.505237  -18.409420    0.893647 H         1 <1>         0.026520 
    106 H          10.505665  -18.409203   -0.893067 H         1 <1>         0.026520 
    107 H          -9.159877   20.541591    0.893802 H         1 <1>         0.026265 
    108 H          -9.159454   20.541807   -0.893225 H         1 <1>         0.026265 
    109 H           9.159877  -20.541591   -0.893802 H         1 <1>         0.026265 
    110 H           9.159454  -20.541807    0.893225 H         1 <1>         0.026265 
    111 H         -10.932726   22.074286    0.000058 H         1 <1>         0.022978 
    112 H         -11.677765   20.717723   -0.895284 H         1 <1>         0.022978 
    113 H         -11.678186   20.717508    0.894711 H         1 <1>         0.022978 
    114 H          10.932726  -22.074286   -0.000058 H         1 <1>         0.022978 
    115 H          11.677765  -20.717723    0.895284 H         1 <1>         0.022978 
    116 H          11.678186  -20.717508   -0.894711 H         1 <1>         0.022978 
@<TRIPOS>BOND
     1    1    2 1    
     2    1    3 1    
     3    1   39 1    
     4    1   40 1    
     5    2    4 1    
     6    2   41 1    
     7    2   42 1    
     8    3    5 1    
     9    3   43 1    
    10    3   44 1    
    11    4    6 1    
    12    4   45 1    
    13    4   46 1    
    14    5    7 1    
    15    5   47 1    
    16    5   48 1    
    17    6    8 1    
    18    6   49 1    
    19    6   50 1    
    20    7    9 1    
    21    7   51 1    
    22    7   52 1    
    23    8   10 1    
    24    8   53 1    
    25    8   54 1    
    26    9   11 1    
    27    9   55 1    
    28    9   56 1    
    29   10   12 1    
    30   10   57 1    
    31   10   58 1    
    32   11   13 1    
    33   11   59 1    
    34   11   60 1    
    35   12   14 1    
    36   12   61 1    
    37   12   62 1    
    38   13   15 1    
    39   13   63 1    
    40   13   64 1    
    41   14   16 1    
    42   14   65 1    
    43   14   66 1    
    44   15   17 1    
    45   15   67 1    
    46   15   68 1    
    47   16   18 1    
    48   16   69 1    
    49   16   70 1    
    50   17   19 1    
    51   17   71 1    
    52   17   72 1    
    53   18   20 1    
    54   18   73 1    
    55   18   74 1    
    56   19   21 1    
    57   19   75 1    
    58   19   76 1    
    59   20   22 1    
    60   20   77 1    
    61   20   78 1    
    62   21   23 1    
    63   21   79 1    
    64   21   80 1    
    65   22   24 1    
    66   22   81 1    
    67   22   82 1    
    68   23   25 1    
    69   23   83 1    
    70   23   84 1    
    71   24   26 1    
    72   24   85 1    
    73   24   86 1    
    74   25   27 1    
    75   25   87 1    
    76   25   88 1    
    77   26   28 1    
    78   26   89 1    
    79   26   90 1    
    80   27   29 1    
    81   27   91 1    
    82   27   92 1    
    83   28   30 1    
    84   28   93 1    
    85   28   94 1    
    86   29   31 1    
    87   29   95 1    
    88   29   96 1    
    89   30   32 1    
    90   30   97 1    
    91   30   98 1    
    92   31   33 1    
    93   31   99 1    
    94   31  100 1    
    95   32   34 1    
    96   32  101 1    
    97   32  102 1    
    98   33   35 1    
    99   33  103 1    
   100   33  104 1    
   101   34   36 1    
   102   34  105 1    
   103   34  106 1    
   104   35   37 1    
   105   35  107 1    
   106   35  108 1    
   107   36   38 1    
   108   36  109 1    
   109   36  110 1    
   110   37  111 1    
   111   37  112 1    
   112   37  113 1    
   113   38  114 1    
   114   38  115 1    
   115   38  116 1    
@<TRIPOS>SUBSTRUCTURE
     1 ****        1 TEMP              0 ****  ****    0 ROOT 
@<TRIPOS>NORMAL
@<TRIPOS>FF_PBC
FORCE_FIELD_SETUP_FEATURE Force Field Setup information
v1.0  0 0.000000 0.000000 0.000000 0.000000 0.000000 0.000000 NONE 0 0 0 0 1 0 0 0 0 0 0 0 0
