@<TRIPOS>MOLECULE
MOL003656
   43    45     1     1     0
SMALL
GASTEIGER


@<TRIPOS>ATOM
      1 C          -0.682822    2.032524   -0.212516 C.ar      1 <1>         0.082794 
      2 C           0.817265    2.163736   -0.149496 C.2       1 <1>         0.200581 
      3 C          -1.221134    0.691072    0.094792 C.ar      1 <1>         0.101520 
      4 C           1.589320    0.958295    0.195151 C.2       1 <1>         0.052653 
      5 C          -2.611927    0.454181    0.039310 C.ar      1 <1>         0.017321 
      6 O          -0.354339   -0.349919    0.437971 O.3       1 <1>        -0.314985 
      7 C          -1.544833    3.096720   -0.546542 C.ar      1 <1>         0.088350 
      8 C           0.979426   -0.204867    0.468172 C.2       1 <1>         0.058267 
      9 C          -3.524429    1.579207   -0.297244 C.ar      1 <1>         0.080983 
     10 C          -3.007444    2.849547   -0.584374 C.ar      1 <1>        -0.001024 
     11 C          -3.155875   -0.954124    0.326685 C.3       1 <1>        -0.004315 
     12 C           3.101239    1.031681    0.237450 C.ar      1 <1>        -0.012137 
     13 C          -2.427910   -2.026507   -0.450189 C.2       1 <1>        -0.080815 
     14 O           1.376318    3.222084   -0.386770 O.2       1 <1>        -0.286389 
     15 C          -2.525062   -3.344008   -0.205449 C.2       1 <1>        -0.079306 
     16 C           3.914778   -0.040686   -0.388261 C.ar      1 <1>        -0.051421 
     17 C           3.754524    2.114100    0.865576 C.ar      1 <1>        -0.051421 
     18 O          -1.021766    4.358638   -0.835967 O.3       1 <1>        -0.358955 
     19 O          -4.903495    1.388725   -0.329437 O.3       1 <1>        -0.359385 
     20 C           6.006624    1.159749    0.298593 C.ar      1 <1>         0.072617 
     21 C           5.235007    2.183382    0.896398 C.ar      1 <1>        -0.031363 
     22 C           5.320001    0.023248   -0.356296 C.ar      1 <1>        -0.031363 
     23 O           7.403305    1.195248    0.310881 O.3       1 <1>        -0.359832 
     24 C          -1.720288   -4.350541   -1.000038 C.3       1 <1>        -0.044040 
     25 C          -3.422456   -3.938962    0.859089 C.3       1 <1>        -0.044040 
     26 H           1.553033   -1.091646    0.735714 H         1 <1>         0.089749 
     27 H          -3.693078    3.652390   -0.832109 H         1 <1>         0.066932 
     28 H          -3.043581   -1.119373    1.409192 H         1 <1>         0.035722 
     29 H          -4.219915   -1.022049    0.058545 H         1 <1>         0.035722 
     30 H          -1.782979   -1.690547   -1.262992 H         1 <1>         0.057473 
     31 H           3.430134   -0.877927   -0.879956 H         1 <1>         0.062443 
     32 H           3.178872    2.904066    1.336518 H         1 <1>         0.062443 
     33 H          -1.679197    5.011902   -1.047084 H         1 <1>         0.217342 
     34 H          -5.234606    1.159933    0.532156 H         1 <1>         0.217328 
     35 H           5.715640    3.025766    1.381834 H         1 <1>         0.064338 
     36 H           5.912931   -0.761080   -0.814788 H         1 <1>         0.064338 
     37 H           7.771117    1.972749    0.716108 H         1 <1>         0.217313 
     38 H          -2.400438   -4.982334   -1.590444 H         1 <1>         0.027427 
     39 H          -1.001213   -3.881614   -1.688590 H         1 <1>         0.027427 
     40 H          -1.155063   -4.992358   -0.306845 H         1 <1>         0.027427 
     41 H          -4.160270   -3.234726    1.266989 H         1 <1>         0.027427 
     42 H          -3.982438   -4.785569    0.433546 H         1 <1>         0.027427 
     43 H          -2.801589   -4.312047    1.687316 H         1 <1>         0.027427 
@<TRIPOS>BOND
     1    1    2 1    
     2    1    3 1    
     3    1    7 2    
     4    2    4 1    
     5    2   14 2    
     6    3    5 2    
     7    3    6 1    
     8    4    8 2    
     9    4   12 1    
    10    5    9 1    
    11    5   11 1    
    12    6    8 1    
    13    7   10 1    
    14    7   18 1    
    15    8   26 1    
    16    9   10 2    
    17    9   19 1    
    18   10   27 1    
    19   11   13 1    
    20   11   28 1    
    21   11   29 1    
    22   12   16 1    
    23   12   17 2    
    24   13   15 2    
    25   13   30 1    
    26   15   24 1    
    27   15   25 1    
    28   16   22 2    
    29   16   31 1    
    30   17   21 1    
    31   17   32 1    
    32   18   33 1    
    33   19   34 1    
    34   21   20 2    
    35   20   22 1    
    36   20   23 1    
    37   21   35 1    
    38   22   36 1    
    39   23   37 1    
    40   24   38 1    
    41   24   39 1    
    42   24   40 1    
    43   25   41 1    
    44   25   42 1    
    45   25   43 1    
@<TRIPOS>SUBSTRUCTURE
     1 ****        1 TEMP              0 ****  ****    0 ROOT 
@<TRIPOS>NORMAL
@<TRIPOS>FF_PBC
FORCE_FIELD_SETUP_FEATURE Force Field Setup information
v1.0  0 0.000000 0.000000 0.000000 0.000000 0.000000 0.000000 NONE 0 0 0 0 1 0 0 0 0 0 0 0 0
