@<TRIPOS>MOLECULE
MOL000703
   22    21     1     1     0
SMALL
GASTEIGER


@<TRIPOS>ATOM
      1 C          -0.763017    1.219790   -0.000098 C.3       1 <1>         0.005543 
      2 C           0.474046    0.281116    0.000097 C.3       1 <1>        -0.046393 
      3 C          -0.377688    2.679741    0.000062 C.2       1 <1>         0.130322 
      4 C           0.054218   -1.214435   -0.000063 C.3       1 <1>        -0.052922 
      5 C          -1.489950    3.695996   -0.000077 C.3       1 <1>        -0.006065 
      6 O           0.790523    3.033379    0.000266 O.2       1 <1>        -0.297704 
      7 C           1.294492   -2.149287    0.000144 C.3       1 <1>        -0.055900 
      8 C           0.876028   -3.642715   -0.000055 C.3       1 <1>        -0.065276 
      9 H          -1.374324    1.019450   -0.894092 H         1 <1>         0.034143 
     10 H          -1.374674    1.019356    0.893630 H         1 <1>         0.034143 
     11 H           1.085020    0.490186    0.893979 H         1 <1>         0.026927 
     12 H           1.085374    0.490280   -0.893531 H         1 <1>         0.026927 
     13 H          -0.557306   -1.422133   -0.893620 H         1 <1>         0.026530 
     14 H          -0.557675   -1.422226    0.893213 H         1 <1>         0.026530 
     15 H          -1.079220    4.717183    0.000070 H         1 <1>         0.030578 
     16 H          -2.114469    3.567551   -0.896560 H         1 <1>         0.030578 
     17 H          -2.114788    3.567425    0.896164 H         1 <1>         0.030578 
     18 H           1.908650   -1.947809    0.893752 H         1 <1>         0.026265 
     19 H           1.909049   -1.947685   -0.893173 H         1 <1>         0.026265 
     20 H           1.769755   -4.286702    0.000103 H         1 <1>         0.022978 
     21 H           0.277979   -3.874268   -0.895262 H         1 <1>         0.022978 
     22 H           0.277575   -3.874393    0.894850 H         1 <1>         0.022978 
@<TRIPOS>BOND
     1    1    2 1    
     2    1    3 1    
     3    1    9 1    
     4    1   10 1    
     5    2    4 1    
     6    2   11 1    
     7    2   12 1    
     8    3    5 1    
     9    3    6 2    
    10    4    7 1    
    11    4   13 1    
    12    4   14 1    
    13    5   15 1    
    14    5   16 1    
    15    5   17 1    
    16    7    8 1    
    17    7   18 1    
    18    7   19 1    
    19    8   20 1    
    20    8   21 1    
    21    8   22 1    
@<TRIPOS>SUBSTRUCTURE
     1 ****        1 TEMP              0 ****  ****    0 ROOT 
@<TRIPOS>NORMAL
@<TRIPOS>FF_PBC
FORCE_FIELD_SETUP_FEATURE Force Field Setup information
v1.0  0 0.000000 0.000000 0.000000 0.000000 0.000000 0.000000 NONE 0 0 0 0 1 0 0 0 0 0 0 0 0
