@<TRIPOS>MOLECULE
MOL004633
   82    87     1     1     0
SMALL
GASTEIGER


@<TRIPOS>ATOM
      1 C          -2.229021   -3.551936   -2.920777 C.3       1 <1>        -0.025737 
      2 C          -3.684283   -3.701025   -2.422412 C.3       1 <1>         0.062974 
      3 C          -3.771476   -3.429319   -0.872217 C.3       1 <1>         0.020282 
      4 C          -2.617380   -2.445976   -0.406306 C.3       1 <1>        -0.025216 
      5 C          -2.164374   -1.357006   -1.452249 C.3       1 <1>        -0.021745 
      6 C          -1.742866   -2.080848   -2.794231 C.3       1 <1>        -0.044446 
      7 C          -2.808509   -1.823569    1.015422 C.3       1 <1>        -0.048517 
      8 C          -1.522262   -1.115055    1.546117 C.3       1 <1>        -0.046183 
      9 C          -0.935094   -0.028781    0.584987 C.3       1 <1>        -0.016907 
     10 C          -0.890671   -0.624138   -0.867682 C.3       1 <1>        -0.011151 
     11 C           0.564072    0.390970    0.969424 C.3       1 <1>         0.009124 
     12 C           0.943649    1.626195    0.080401 C.3       1 <1>         0.096991 
     13 C           0.566354    1.373418   -1.367208 C.2       1 <1>        -0.055410 
     14 C          -0.237837    0.385411   -1.790342 C.2       1 <1>        -0.081074 
     15 C           0.722656    0.797702    2.471622 C.3       1 <1>        -0.017380 
     16 C           2.009141    1.629676    2.765769 C.3       1 <1>         0.063916 
     17 C           2.289014    2.745267    1.698942 C.3       1 <1>         0.025848 
     18 C           2.369901    2.215294    0.252103 C.3       1 <1>         0.002843 
     19 C           3.591520    3.537536    2.049779 C.3       1 <1>        -0.042066 
     20 C           4.448428    3.895387    0.802552 C.3       1 <1>        -0.047195 
     21 C           4.859004    2.632141   -0.041529 C.3       1 <1>        -0.034485 
     22 C           3.730305    1.536038   -0.041316 C.3       1 <1>        -0.041426 
     23 C          -5.194691   -2.911671   -0.495608 C.3       1 <1>        -0.054830 
     24 C          -3.622779   -4.825792   -0.161972 C.3       1 <1>         0.052200 
     25 H          -1.734875   -3.091911   -0.274747 H         1 <1>         0.031300 
     26 C           1.608161   -0.761814    0.711107 C.3       1 <1>        -0.056020 
     27 C           5.148043    3.097147   -1.502617 C.3       1 <1>        -0.059801 
     28 O           0.229042    2.809952    0.531649 O.3       1 <1>        -0.367842 
     29 O          -4.496206   -2.867915   -3.270942 O.3       1 <1>        -0.391162 
     30 C          -3.290129   -0.324520   -1.805584 C.3       1 <1>        -0.058736 
     31 C          -1.913063    1.206899    0.631694 C.3       1 <1>        -0.058408 
     32 H           2.367111    3.038568   -0.483595 H         1 <1>         0.033899 
     33 C           0.990144    3.563667    1.510416 C.3       1 <1>         0.057154 
     34 C           6.179198    2.016225    0.519833 C.3       1 <1>        -0.059801 
     35 O           1.803790    2.206679    4.072892 O.3       1 <1>        -0.391131 
     36 O          -3.759490   -4.753751    1.268299 O.3       1 <1>        -0.394374 
     37 H          -2.171264   -3.860772   -3.979205 H         1 <1>         0.029039 
     38 H          -1.571258   -4.231821   -2.355592 H         1 <1>         0.029039 
     39 H          -3.995447   -4.734082   -2.663661 H         1 <1>         0.059936 
     40 H          -2.114409   -1.519642   -3.667567 H         1 <1>         0.027158 
     41 H          -0.651532   -2.138985   -2.938211 H         1 <1>         0.027158 
     42 H          -3.035175   -2.604252    1.754353 H         1 <1>         0.026847 
     43 H          -3.675672   -1.154833    1.033780 H         1 <1>         0.026847 
     44 H          -0.800582   -1.916185    1.745755 H         1 <1>         0.027097 
     45 H          -1.749362   -0.649840    2.519465 H         1 <1>         0.027097 
     46 H          -0.179962   -1.454854   -0.841827 H         1 <1>         0.035379 
     47 H           0.968603    2.050637   -2.121916 H         1 <1>         0.059762 
     48 H          -0.418561    0.315614   -2.863716 H         1 <1>         0.057297 
     49 H           0.727217   -0.104517    3.104492 H         1 <1>         0.029668 
     50 H          -0.116590    1.399603    2.831395 H         1 <1>         0.029668 
     51 H           2.878281    0.958214    2.846602 H         1 <1>         0.059965 
     52 H           4.248886    2.931385    2.691374 H         1 <1>         0.027239 
     53 H           3.327187    4.446466    2.614169 H         1 <1>         0.027239 
     54 H           3.869186    4.615110    0.202255 H         1 <1>         0.027062 
     55 H           5.353109    4.437337    1.124278 H         1 <1>         0.027062 
     56 H           3.691007    0.995442   -1.000148 H         1 <1>         0.027428 
     57 H           3.973174    0.811444    0.740068 H         1 <1>         0.027428 
     58 H          -5.327329   -2.853991    0.594327 H         1 <1>         0.023667 
     59 H          -5.965323   -3.600807   -0.873402 H         1 <1>         0.023667 
     60 H          -5.396328   -1.917263   -0.911671 H         1 <1>         0.023667 
     61 H          -2.650085   -5.282718   -0.409218 H         1 <1>         0.056334 
     62 H          -4.412232   -5.512453   -0.514838 H         1 <1>         0.056334 
     63 H           1.965503   -0.759815   -0.329448 H         1 <1>         0.023625 
     64 H           1.230932   -1.766640    0.927628 H         1 <1>         0.023625 
     65 H           2.491199   -0.700618    1.349361 H         1 <1>         0.023625 
     66 H           4.240765    3.489223   -1.986077 H         1 <1>         0.023499 
     67 H           5.522243    2.260947   -2.113300 H         1 <1>         0.023499 
     68 H           5.909476    3.892475   -1.509029 H         1 <1>         0.023499 
     69 H          -5.435256   -2.976832   -3.163218 H         1 <1>         0.209801 
     70 H          -2.855734    0.576544   -2.260919 H         1 <1>         0.023534 
     71 H          -3.900448   -0.010394   -0.959101 H         1 <1>         0.023534 
     72 H          -4.006309   -0.713634   -2.535317 H         1 <1>         0.023534 
     73 H          -1.857792    1.813237   -0.282928 H         1 <1>         0.023543 
     74 H          -1.744590    1.880196    1.476125 H         1 <1>         0.023543 
     75 H          -2.960219    0.940224    0.767533 H         1 <1>         0.023543 
     76 H           1.213949    4.546225    1.065271 H         1 <1>         0.056652 
     77 H           0.431151    3.736041    2.442547 H         1 <1>         0.056652 
     78 H           6.068771    1.726809    1.575433 H         1 <1>         0.023499 
     79 H           6.455395    1.118218   -0.054462 H         1 <1>         0.023499 
     80 H           7.011326    2.733790    0.451422 H         1 <1>         0.023499 
     81 H           2.543358    2.695670    4.417492 H         1 <1>         0.209802 
     82 H          -3.671384   -5.593754    1.710278 H         1 <1>         0.209420 
@<TRIPOS>BOND
     1    1    2 1    
     2    1    6 1    
     3    1   37 1    
     4    1   38 1    
     5    2    3 1    
     6    2   29 1    
     7    2   39 1    
     8    3    4 1    
     9    3   23 1    
    10    3   24 1    
    11    4    5 1    
    12    4    7 1    
    13    4   25 1    
    14    5    6 1    
    15    5   10 1    
    16    5   30 1    
    17    6   40 1    
    18    6   41 1    
    19    7    8 1    
    20    7   42 1    
    21    7   43 1    
    22    8    9 1    
    23    8   44 1    
    24    8   45 1    
    25    9   10 1    
    26    9   11 1    
    27    9   31 1    
    28   10   14 1    
    29   10   46 1    
    30   11   12 1    
    31   11   15 1    
    32   11   26 1    
    33   12   13 1    
    34   12   18 1    
    35   12   28 1    
    36   13   14 2    
    37   13   47 1    
    38   14   48 1    
    39   15   16 1    
    40   15   49 1    
    41   15   50 1    
    42   16   17 1    
    43   16   35 1    
    44   16   51 1    
    45   17   18 1    
    46   17   19 1    
    47   17   33 1    
    48   18   22 1    
    49   18   32 1    
    50   19   20 1    
    51   19   52 1    
    52   19   53 1    
    53   20   21 1    
    54   20   54 1    
    55   20   55 1    
    56   21   22 1    
    57   21   27 1    
    58   21   34 1    
    59   22   56 1    
    60   22   57 1    
    61   23   58 1    
    62   23   59 1    
    63   23   60 1    
    64   24   36 1    
    65   24   61 1    
    66   24   62 1    
    67   26   63 1    
    68   26   64 1    
    69   26   65 1    
    70   27   66 1    
    71   27   67 1    
    72   27   68 1    
    73   28   33 1    
    74   29   69 1    
    75   30   70 1    
    76   30   71 1    
    77   30   72 1    
    78   31   73 1    
    79   31   74 1    
    80   31   75 1    
    81   33   76 1    
    82   33   77 1    
    83   34   78 1    
    84   34   79 1    
    85   34   80 1    
    86   35   81 1    
    87   36   82 1    
@<TRIPOS>SUBSTRUCTURE
     1 ****        1 TEMP              0 ****  ****    0 ROOT 
@<TRIPOS>NORMAL
@<TRIPOS>FF_PBC
FORCE_FIELD_SETUP_FEATURE Force Field Setup information
v1.0  0 0.000000 0.000000 0.000000 0.000000 0.000000 0.000000 NONE 0 0 0 0 1 0 0 0 0 0 0 0 0
