@<TRIPOS>MOLECULE
MOL004656
   27    27     1     1     0
SMALL
GASTEIGER


@<TRIPOS>ATOM
      1 O          -1.991442   -1.539289    1.467173 O.2       1 <1>        -0.292404 
      2 C           0.114816    1.121393    0.403444 C.3       1 <1>        -0.028273 
      3 C          -0.266420    0.834842   -1.093833 C.3       1 <1>        -0.043211 
      4 C          -0.916818    0.555808    1.420059 C.3       1 <1>         0.013460 
      5 C           1.489913    0.509575    0.804172 C.3       1 <1>        -0.030647 
      6 C          -0.939444   -0.943406    1.300050 C.2       1 <1>         0.158948 
      7 C           1.436480   -0.998594    0.762119 C.2       1 <1>        -0.077514 
      8 C          -1.709837    1.311607   -1.435558 C.3       1 <1>        -0.062394 
      9 C           0.723960    1.512373   -2.088816 C.3       1 <1>        -0.062394 
     10 C           0.303700   -1.681247    0.984645 C.2       1 <1>        -0.011952 
     11 C           0.310256   -3.190558    0.911492 C.3       1 <1>        -0.036707 
     12 H           0.162235    2.215394    0.541405 H         1 <1>         0.031033 
     13 H          -0.231382   -0.250366   -1.289084 H         1 <1>         0.029834 
     14 H          -1.917589    0.984451    1.268791 H         1 <1>         0.034785 
     15 H          -0.625168    0.801025    2.453380 H         1 <1>         0.034785 
     16 H           1.753778    0.800883    1.833597 H         1 <1>         0.031037 
     17 H           2.298177    0.882751    0.160472 H         1 <1>         0.031037 
     18 H           2.359506   -1.540002    0.548373 H         1 <1>         0.057576 
     19 H          -1.908202    1.232989   -2.515640 H         1 <1>         0.023242 
     20 H          -2.470108    0.693216   -0.936183 H         1 <1>         0.023242 
     21 H          -1.845389    2.362084   -1.135948 H         1 <1>         0.023242 
     22 H           0.386721    1.381316   -3.128721 H         1 <1>         0.023242 
     23 H           1.730792    1.076097   -2.033478 H         1 <1>         0.023242 
     24 H           0.792301    2.591653   -1.883914 H         1 <1>         0.023242 
     25 H          -0.706918   -3.608837    0.933658 H         1 <1>         0.027849 
     26 H           0.794726   -3.522518   -0.019470 H         1 <1>         0.027849 
     27 H           0.871353   -3.592743    1.768315 H         1 <1>         0.027849 
@<TRIPOS>BOND
     1    6    1 2    
     2    2    3 1    
     3    4    2 1    
     4    2    5 1    
     5    2   12 1    
     6    3    8 1    
     7    3    9 1    
     8    3   13 1    
     9    4    6 1    
    10    4   14 1    
    11    4   15 1    
    12    5    7 1    
    13    5   16 1    
    14    5   17 1    
    15    6   10 1    
    16    7   10 2    
    17    7   18 1    
    18    8   19 1    
    19    8   20 1    
    20    8   21 1    
    21    9   22 1    
    22    9   23 1    
    23    9   24 1    
    24   10   11 1    
    25   11   25 1    
    26   11   26 1    
    27   11   27 1    
@<TRIPOS>SUBSTRUCTURE
     1 ****        2 TEMP              0 ****  ****    0 ROOT 
@<TRIPOS>NORMAL
@<TRIPOS>FF_PBC
FORCE_FIELD_SETUP_FEATURE Force Field Setup information
v1.0  0 0.000000 0.000000 0.000000 0.000000 0.000000 0.000000 NONE 0 0 0 0 1 0 0 0 0 0 0 0 0
