@<TRIPOS>MOLECULE
MOL004616
   25    24     1     1     0
SMALL
GASTEIGER


@<TRIPOS>ATOM
      1 C           0.222620    1.895705    0.641520 C.3       1 <1>        -0.053578 
      2 C           1.488763    0.998804    0.589859 C.3       1 <1>        -0.027094 
      3 C           1.206476   -0.530607    0.644737 C.3       1 <1>         0.055527 
      4 C           0.324875   -1.053542   -0.532655 C.3       1 <1>        -0.023432 
      5 C          -1.184383   -1.168478   -0.176770 C.3       1 <1>        -0.032679 
      6 C          -1.959983   -1.645707   -1.382693 C.2       1 <1>        -0.091026 
      7 C          -2.595539   -2.823290   -1.430008 C.2       1 <1>        -0.102629 
      8 C           0.601294    3.395071    0.766491 C.3       1 <1>        -0.065196 
      9 O           2.507319   -1.150535    0.608927 O.3       1 <1>        -0.391777 
     10 H          -0.363402    1.770532   -0.282990 H         1 <1>         0.026344 
     11 H          -0.401817    1.609579    1.504049 H         1 <1>         0.026344 
     12 H           2.131075    1.246259    1.451391 H         1 <1>         0.028994 
     13 H           2.057905    1.226378   -0.326256 H         1 <1>         0.028994 
     14 H           0.732717   -0.770647    1.613562 H         1 <1>         0.059314 
     15 H           0.648390   -2.070455   -0.808548 H         1 <1>         0.029298 
     16 H           0.469259   -0.416517   -1.419577 H         1 <1>         0.029298 
     17 H          -1.606278   -0.202637    0.132580 H         1 <1>         0.030804 
     18 H          -1.304308   -1.865968    0.668233 H         1 <1>         0.030804 
     19 H          -1.997876   -0.991886   -2.256203 H         1 <1>         0.056631 
     20 H          -3.142092   -3.122260   -2.324900 H         1 <1>         0.053174 
     21 H          -2.587931   -3.514336   -0.587532 H         1 <1>         0.053174 
     22 H          -0.308205    4.016505    0.780701 H         1 <1>         0.022979 
     23 H           1.161101    3.576288    1.697342 H         1 <1>         0.022979 
     24 H           1.224552    3.705810   -0.086612 H         1 <1>         0.022979 
     25 H           2.487671   -2.095463    0.725352 H         1 <1>         0.209776 
@<TRIPOS>BOND
     1    1    2 1    
     2    1    8 1    
     3    1   10 1    
     4    1   11 1    
     5    2    3 1    
     6    2   12 1    
     7    2   13 1    
     8    3    4 1    
     9    3    9 1    
    10    3   14 1    
    11    4    5 1    
    12    4   15 1    
    13    4   16 1    
    14    5    6 1    
    15    5   17 1    
    16    5   18 1    
    17    6    7 2    
    18    6   19 1    
    19    7   20 1    
    20    7   21 1    
    21    8   22 1    
    22    8   23 1    
    23    8   24 1    
    24    9   25 1    
@<TRIPOS>SUBSTRUCTURE
     1 ****        1 TEMP              0 ****  ****    0 ROOT 
@<TRIPOS>NORMAL
@<TRIPOS>FF_PBC
FORCE_FIELD_SETUP_FEATURE Force Field Setup information
v1.0  0 0.000000 0.000000 0.000000 0.000000 0.000000 0.000000 NONE 0 0 0 0 1 0 0 0 0 0 0 0 0
