@<TRIPOS>MOLECULE
MOL004970
   26    25     1     1     0
SMALL
GASTEIGER


@<TRIPOS>ATOM
      1 C          -0.573901   -1.027127    0.846869 C.3       1 <1>        -0.044128 
      2 C           0.812146   -0.342626    0.622734 C.3       1 <1>        -0.050476 
      3 C          -1.715775    0.019092    1.027640 C.3       1 <1>        -0.053312 
      4 C          -0.900723   -2.060795   -0.269403 C.3       1 <1>        -0.062423 
      5 C           0.922563    0.521609   -0.664430 C.3       1 <1>        -0.053064 
      6 C          -3.001316   -0.585150    1.655206 C.3       1 <1>        -0.065034 
      7 C           2.306790    1.224741   -0.747074 C.3       1 <1>        -0.055903 
      8 C           2.423870    2.086824   -2.030941 C.3       1 <1>        -0.065276 
      9 H          -0.482353   -1.588387    1.794409 H         1 <1>         0.029804 
     10 H           1.025543    0.299570    1.492405 H         1 <1>         0.026785 
     11 H           1.593568   -1.121014    0.592327 H         1 <1>         0.026785 
     12 H          -1.368234    0.824913    1.694679 H         1 <1>         0.026521 
     13 H          -1.978284    0.467696    0.056952 H         1 <1>         0.026521 
     14 H          -1.758768   -2.689771    0.011546 H         1 <1>         0.023242 
     15 H          -0.040982   -2.728639   -0.436893 H         1 <1>         0.023242 
     16 H          -1.142196   -1.553471   -1.215726 H         1 <1>         0.023242 
     17 H           0.787951   -0.110162   -1.556376 H         1 <1>         0.026528 
     18 H           0.143352    1.298237   -0.666708 H         1 <1>         0.026528 
     19 H          -3.743851    0.210559    1.823274 H         1 <1>         0.022986 
     20 H          -3.453486   -1.338191    0.993448 H         1 <1>         0.022986 
     21 H          -2.770899   -1.054476    2.623862 H         1 <1>         0.022986 
     22 H           2.439427    1.877265    0.131971 H         1 <1>         0.026265 
     23 H           3.110918    0.468722   -0.741156 H         1 <1>         0.026265 
     24 H           3.403650    2.590360   -2.061099 H         1 <1>         0.022978 
     25 H           2.326040    1.455446   -2.928494 H         1 <1>         0.022978 
     26 H           1.634849    2.854778   -2.049322 H         1 <1>         0.022978 
@<TRIPOS>BOND
     1    1    2 1    
     2    1    3 1    
     3    1    4 1    
     4    1    9 1    
     5    2    5 1    
     6    2   10 1    
     7    2   11 1    
     8    3    6 1    
     9    3   12 1    
    10    3   13 1    
    11    4   14 1    
    12    4   15 1    
    13    4   16 1    
    14    5    7 1    
    15    5   17 1    
    16    5   18 1    
    17    6   19 1    
    18    6   20 1    
    19    6   21 1    
    20    7    8 1    
    21    7   22 1    
    22    7   23 1    
    23    8   24 1    
    24    8   25 1    
    25    8   26 1    
@<TRIPOS>SUBSTRUCTURE
     1 ****        1 TEMP              0 ****  ****    0 ROOT 
@<TRIPOS>NORMAL
@<TRIPOS>FF_PBC
FORCE_FIELD_SETUP_FEATURE Force Field Setup information
v1.0  0 0.000000 0.000000 0.000000 0.000000 0.000000 0.000000 NONE 0 0 0 0 1 0 0 0 0 0 0 0 0
