@<TRIPOS>MOLECULE
MOL003937
   39    40     1     1     0
SMALL
GASTEIGER


@<TRIPOS>ATOM
      1 C           1.016249    0.707984   -0.463031 C.3       1 <1>        -0.031605 
      2 C           2.338561   -0.131920   -0.492524 C.3       1 <1>        -0.045733 
      3 C           2.163031   -1.601383   -0.935295 C.3       1 <1>        -0.031437 
      4 C           1.176179   -2.187486    0.035756 C.2       1 <1>        -0.072943 
      5 C          -0.207727   -1.604194   -0.101961 C.3       1 <1>        -0.013345 
      6 C          -1.307363   -2.267894    0.769156 C.3       1 <1>        -0.042294 
      7 C          -2.699739   -1.727411    0.354139 C.3       1 <1>        -0.031439 
      8 C          -2.677748   -0.293932   -0.122384 C.2       1 <1>        -0.076221 
      9 C          -1.547442    0.425443   -0.209633 C.2       1 <1>        -0.081098 
     10 C          -0.173833   -0.076916    0.205093 C.3       1 <1>        -0.013085 
     11 C           1.340798    2.080976    0.249674 C.3       1 <1>        -0.043327 
     12 C           2.456468    2.886428   -0.486527 C.3       1 <1>        -0.062396 
     13 C           0.130773    3.036311    0.462916 C.3       1 <1>        -0.062396 
     14 C           1.536560   -3.121516    0.928378 C.2       1 <1>        -0.099165 
     15 C          -4.024595    0.273917   -0.520360 C.3       1 <1>        -0.043778 
     16 H           0.725673    0.893803   -1.510271 H         1 <1>         0.030917 
     17 H           3.061453    0.304776   -1.199550 H         1 <1>         0.027122 
     18 H           2.796753   -0.144848    0.510526 H         1 <1>         0.027122 
     19 H           1.778726   -1.653536   -1.966674 H         1 <1>         0.031008 
     20 H           3.135028   -2.121999   -0.914010 H         1 <1>         0.031008 
     21 H          -0.496680   -1.757064   -1.156327 H         1 <1>         0.035136 
     22 H          -1.304024   -3.363895    0.645181 H         1 <1>         0.027417 
     23 H          -1.121622   -2.040928    1.831748 H         1 <1>         0.027417 
     24 H          -3.412727   -1.849393    1.185636 H         1 <1>         0.031008 
     25 H          -3.065708   -2.324364   -0.497578 H         1 <1>         0.031008 
     26 H          -1.652160    1.424081   -0.619794 H         1 <1>         0.057459 
     27 H          -0.054634    0.048643    1.292867 H         1 <1>         0.035152 
     28 H           1.715207    1.861667    1.265264 H         1 <1>         0.029832 
     29 H           3.440662    2.403343   -0.407924 H         1 <1>         0.023242 
     30 H           2.577571    3.891218   -0.053121 H         1 <1>         0.023242 
     31 H           2.197774    3.002408   -1.550040 H         1 <1>         0.023242 
     32 H          -0.635785    2.581311    1.107071 H         1 <1>         0.023242 
     33 H           0.447239    3.959126    0.974206 H         1 <1>         0.023242 
     34 H          -0.304481    3.325952   -0.505281 H         1 <1>         0.023242 
     35 H           0.855262   -3.557619    1.655200 H         1 <1>         0.053449 
     36 H           2.560791   -3.490561    0.967812 H         1 <1>         0.053449 
     37 H          -4.438351   -0.314818   -1.352706 H         1 <1>         0.027436 
     38 H          -4.715831    0.209783    0.333409 H         1 <1>         0.027436 
     39 H          -3.977274    1.326418   -0.838033 H         1 <1>         0.027436 
@<TRIPOS>BOND
     1    1    2 1    
     2    1   10 1    
     3    1   11 1    
     4    1   16 1    
     5    2    3 1    
     6    2   17 1    
     7    2   18 1    
     8    3    4 1    
     9    3   19 1    
    10    3   20 1    
    11    4    5 1    
    12    4   14 2    
    13    5    6 1    
    14    5   10 1    
    15    5   21 1    
    16    6    7 1    
    17    6   22 1    
    18    6   23 1    
    19    7    8 1    
    20    7   24 1    
    21    7   25 1    
    22    8    9 2    
    23    8   15 1    
    24    9   10 1    
    25    9   26 1    
    26   10   27 1    
    27   11   12 1    
    28   11   13 1    
    29   11   28 1    
    30   12   29 1    
    31   12   30 1    
    32   12   31 1    
    33   13   32 1    
    34   13   33 1    
    35   13   34 1    
    36   14   35 1    
    37   14   36 1    
    38   15   37 1    
    39   15   38 1    
    40   15   39 1    
@<TRIPOS>SUBSTRUCTURE
     1 ****        1 TEMP              0 ****  ****    0 ROOT 
@<TRIPOS>NORMAL
@<TRIPOS>FF_PBC
FORCE_FIELD_SETUP_FEATURE Force Field Setup information
v1.0  0 0.000000 0.000000 0.000000 0.000000 0.000000 0.000000 NONE 0 0 0 0 1 0 0 0 0 0 0 0 0
