@<TRIPOS>MOLECULE
MOL013442
   69    72     1     1     0
SMALL
GASTEIGER


@<TRIPOS>ATOM
      1 C           3.263455   -1.596777    1.563923 C.ar      1 <1>         0.110458 
      2 C           3.229016   -0.231216    2.090365 C.ar      1 <1>        -0.006225 
      3 C           4.355319    0.569365    2.190791 C.ar      1 <1>        -0.048371 
      4 C           5.658956    0.005156    1.744963 C.ar      1 <1>        -0.022387 
      5 C           5.686657   -1.333903    1.266204 C.ar      1 <1>        -0.021984 
      6 C           4.464572   -2.172151    1.173041 C.ar      1 <1>         0.106528 
      7 O           2.029333   -2.225207    1.482283 O.3       1 <1>        -0.333344 
      8 C           1.120532   -1.336887    2.175723 C.3       1 <1>         0.099286 
      9 C           1.782033    0.057606    2.441184 C.3       1 <1>         0.040673 
     10 C          -0.175440   -1.139589    1.382733 C.ar      1 <1>        -0.015139 
     11 C          -1.470967   -1.046855    2.091987 C.ar      1 <1>        -0.023477 
     12 C          -2.650724   -0.763940    1.401638 C.ar      1 <1>         0.106112 
     13 C          -2.604547   -0.528927   -0.070557 C.ar      1 <1>         0.109318 
     14 C          -1.393528   -0.722014   -0.760224 C.ar      1 <1>        -0.028687 
     15 C          -0.148682   -1.027981   -0.014133 C.ar      1 <1>        -0.053481 
     16 C           6.955888    0.791028    1.762044 C.2       1 <1>        -0.056294 
     17 C           7.129560    2.011911    2.287951 C.2       1 <1>        -0.058388 
     18 C           8.466923    2.706757    2.226976 C.3       1 <1>         0.062691 
     19 O           8.349417    4.031204    2.777262 O.3       1 <1>        -0.390992 
     20 C           1.575097    0.541942    3.898337 C.3       1 <1>         0.053790 
     21 O           2.167818    1.840975    4.067731 O.3       1 <1>        -0.394312 
     22 O           4.571614   -3.484566    0.692695 O.3       1 <1>        -0.345313 
     23 C           3.581992   -4.478636    1.008408 C.3       1 <1>         0.043136 
     24 O          -3.758142   -0.107663   -0.740677 O.3       1 <1>        -0.309981 
     25 C          -5.226984    1.075390   -4.446645 C.3       1 <1>         0.111896 
     26 C          -4.027692    0.087082   -4.349656 C.3       1 <1>         0.113017 
     27 O          -3.877891   -0.433729   -3.010015 O.3       1 <1>        -0.340166 
     28 C          -3.721185    0.580299   -2.002245 C.3       1 <1>         0.193752 
     29 C          -4.902903    1.579969   -2.004192 C.3       1 <1>         0.134511 
     30 C          -5.050238    2.214810   -3.407701 C.3       1 <1>         0.114074 
     31 O          -3.844324   -0.725899    2.138004 O.3       1 <1>        -0.345330 
     32 C          -5.123194   -0.837324    1.491228 C.3       1 <1>         0.043136 
     33 O          -6.460082    0.369147   -4.206293 O.3       1 <1>        -0.386488 
     34 O          -6.195727    3.091023   -3.391200 O.3       1 <1>        -0.386401 
     35 O          -4.636918    2.610868   -1.031747 O.3       1 <1>        -0.384091 
     36 C          -4.251313   -1.122610   -5.295962 C.3       1 <1>         0.073015 
     37 O          -3.037320   -1.892525   -5.395512 O.3       1 <1>        -0.392366 
     38 H           4.260546    1.575404    2.577582 H         1 <1>         0.062707 
     39 H           6.624893   -1.772932    0.946967 H         1 <1>         0.065001 
     40 H           0.900575   -1.847212    3.126855 H         1 <1>         0.065829 
     41 H           1.432008    0.821835    1.731250 H         1 <1>         0.040076 
     42 H          -1.514776   -1.208092    3.163217 H         1 <1>         0.064767 
     43 H          -1.344232   -0.630225   -1.839815 H         1 <1>         0.064422 
     44 H           0.787017   -1.139912   -0.552657 H         1 <1>         0.062192 
     45 H           7.828149    0.324757    1.300506 H         1 <1>         0.062105 
     46 H           6.325981    2.555170    2.781328 H         1 <1>         0.059478 
     47 H           9.201195    2.119515    2.803301 H         1 <1>         0.060128 
     48 H           8.795345    2.765353    1.175420 H         1 <1>         0.060128 
     49 H           9.171001    4.512927    2.763896 H         1 <1>         0.209823 
     50 H           0.490509    0.604368    4.090047 H         1 <1>         0.056395 
     51 H           2.023876   -0.180332    4.601259 H         1 <1>         0.056395 
     52 H           2.024957    2.205313    4.937644 H         1 <1>         0.209422 
     53 H           3.981853   -5.451521    0.687449 H         1 <1>         0.052871 
     54 H           2.638761   -4.307303    0.470532 H         1 <1>         0.052871 
     55 H           3.395971   -4.516617    2.092275 H         1 <1>         0.052871 
     56 H          -5.253962    1.514816   -5.460410 H         1 <1>         0.064673 
     57 H          -3.097032    0.597452   -4.655271 H         1 <1>         0.064668 
     58 H          -2.805342    1.181239   -2.126494 H         1 <1>         0.094161 
     59 H          -5.820582    1.026106   -1.746588 H         1 <1>         0.067108 
     60 H          -4.136881    2.799381   -3.624362 H         1 <1>         0.064758 
     61 H          -5.884092   -0.982795    2.271565 H         1 <1>         0.052871 
     62 H          -5.146312   -1.707213    0.815675 H         1 <1>         0.052871 
     63 H          -5.382206    0.081333    0.944685 H         1 <1>         0.052871 
     64 H          -7.217751    0.947382   -4.216421 H         1 <1>         0.210004 
     65 H          -6.335943    3.545870   -4.216055 H         1 <1>         0.210005 
     66 H          -5.333530    3.259858   -0.999625 H         1 <1>         0.210111 
     67 H          -4.542033   -0.770346   -6.299671 H         1 <1>         0.058370 
     68 H          -5.068949   -1.743193   -4.890909 H         1 <1>         0.058370 
     69 H          -3.130028   -2.670861   -5.938375 H         1 <1>         0.209508 
@<TRIPOS>BOND
     1    2    1 1    
     2    1    6 2    
     3    7    1 1    
     4    2    3 2    
     5    9    2 1    
     6    3    4 1    
     7    3   38 1    
     8    4    5 2    
     9    4   16 1    
    10    6    5 1    
    11    5   39 1    
    12    6   22 1    
    13    8    7 1    
    14    8    9 1    
    15   10    8 1    
    16    8   40 1    
    17    9   20 1    
    18    9   41 1    
    19   11   10 1    
    20   15   10 2    
    21   12   11 2    
    22   11   42 1    
    23   13   12 1    
    24   12   31 1    
    25   13   14 2    
    26   24   13 1    
    27   14   15 1    
    28   14   43 1    
    29   15   44 1    
    30   16   17 2    
    31   16   45 1    
    32   17   18 1    
    33   17   46 1    
    34   18   19 1    
    35   18   47 1    
    36   18   48 1    
    37   19   49 1    
    38   20   21 1    
    39   20   50 1    
    40   20   51 1    
    41   21   52 1    
    42   22   23 1    
    43   23   53 1    
    44   23   54 1    
    45   23   55 1    
    46   28   24 1    
    47   26   25 1    
    48   25   30 1    
    49   25   33 1    
    50   25   56 1    
    51   27   26 1    
    52   26   36 1    
    53   26   57 1    
    54   27   28 1    
    55   28   29 1    
    56   28   58 1    
    57   29   30 1    
    58   29   35 1    
    59   29   59 1    
    60   30   34 1    
    61   30   60 1    
    62   31   32 1    
    63   32   61 1    
    64   32   62 1    
    65   32   63 1    
    66   33   64 1    
    67   34   65 1    
    68   35   66 1    
    69   36   37 1    
    70   36   67 1    
    71   36   68 1    
    72   37   69 1    
@<TRIPOS>SUBSTRUCTURE
     1 ****       25 TEMP              0 ****  ****    0 ROOT 
@<TRIPOS>NORMAL
@<TRIPOS>FF_PBC
FORCE_FIELD_SETUP_FEATURE Force Field Setup information
v1.0  0 0.000000 0.000000 0.000000 0.000000 0.000000 0.000000 NONE 0 0 0 0 1 0 0 0 0 0 0 0 0
