@<TRIPOS>MOLECULE
MOL002363
   34    34     1     1     0
SMALL
GASTEIGER


@<TRIPOS>ATOM
      1 C          -2.501642    1.508551    0.085634 C.3       1 <1>        -0.031412 
      2 C          -0.987803    1.492461    0.025133 C.2       1 <1>        -0.068932 
      3 C          -0.255131    0.392287    0.276169 C.2       1 <1>        -0.042629 
      4 C          -0.882923   -0.956362    0.592457 C.3       1 <1>        -0.009889 
      5 C          -2.302812   -0.743508    1.196452 C.3       1 <1>        -0.043582 
      6 C          -3.173741    0.124485    0.262001 C.3       1 <1>        -0.048572 
      7 C          -0.026922   -1.717760    1.651040 C.3       1 <1>        -0.055792 
      8 C          -0.944689   -1.812535   -0.708981 C.3       1 <1>        -0.055792 
      9 C          -0.363023    2.831750   -0.316320 C.3       1 <1>        -0.043221 
     10 C           1.217770    0.484753    0.275909 C.2       1 <1>        -0.054825 
     11 C           2.002604    0.030605   -0.708405 C.2       1 <1>        -0.019231 
     12 C           3.476444    0.128759   -0.665563 C.2       1 <1>         0.153049 
     13 C           4.358351   -0.535385   -1.690655 C.3       1 <1>        -0.002001 
     14 O           4.010697    0.766568    0.227677 O.2       1 <1>        -0.292977 
     15 H          -2.759844    2.138491    0.952634 H         1 <1>         0.031008 
     16 H          -2.918654    1.989256   -0.813679 H         1 <1>         0.031008 
     17 H          -2.799177   -1.712820    1.367291 H         1 <1>         0.027367 
     18 H          -2.219427   -0.231191    2.169287 H         1 <1>         0.027367 
     19 H          -4.179927    0.252720    0.695580 H         1 <1>         0.026856 
     20 H          -3.306442   -0.371268   -0.711636 H         1 <1>         0.026856 
     21 H           0.078471   -1.112188    2.564368 H         1 <1>         0.023812 
     22 H          -0.507176   -2.671938    1.916696 H         1 <1>         0.023812 
     23 H           0.982953   -1.943265    1.273661 H         1 <1>         0.023812 
     24 H          -1.311978   -1.224016   -1.563027 H         1 <1>         0.023812 
     25 H          -1.605429   -2.682031   -0.570689 H         1 <1>         0.023812 
     26 H           0.048872   -2.197598   -0.980464 H         1 <1>         0.023812 
     27 H           0.723698    2.805980   -0.473559 H         1 <1>         0.027453 
     28 H          -0.570904    3.540457    0.498432 H         1 <1>         0.027453 
     29 H          -0.813749    3.222142   -1.240005 H         1 <1>         0.027453 
     30 H           1.665334    0.959377    1.149729 H         1 <1>         0.062150 
     31 H           1.543194   -0.429610   -1.581479 H         1 <1>         0.065222 
     32 H           4.936163    0.233537   -2.224667 H         1 <1>         0.030912 
     33 H           5.055828   -1.215704   -1.179205 H         1 <1>         0.030912 
     34 H           3.774564   -1.113808   -2.422113 H         1 <1>         0.030912 
@<TRIPOS>BOND
     1    1    2 1    
     2    1    6 1    
     3    1   15 1    
     4    1   16 1    
     5    2    3 2    
     6    2    9 1    
     7    3    4 1    
     8    3   10 1    
     9    4    5 1    
    10    4    7 1    
    11    4    8 1    
    12    5    6 1    
    13    5   17 1    
    14    5   18 1    
    15    6   19 1    
    16    6   20 1    
    17    7   21 1    
    18    7   22 1    
    19    7   23 1    
    20    8   24 1    
    21    8   25 1    
    22    8   26 1    
    23    9   27 1    
    24    9   28 1    
    25    9   29 1    
    26   10   11 2    
    27   10   30 1    
    28   11   12 1    
    29   11   31 1    
    30   12   13 1    
    31   12   14 2    
    32   13   32 1    
    33   13   33 1    
    34   13   34 1    
@<TRIPOS>SUBSTRUCTURE
     1 ****        1 TEMP              0 ****  ****    0 ROOT 
@<TRIPOS>NORMAL
@<TRIPOS>FF_PBC
FORCE_FIELD_SETUP_FEATURE Force Field Setup information
v1.0  0 0.000000 0.000000 0.000000 0.000000 0.000000 0.000000 NONE 0 0 0 0 1 0 0 0 0 0 0 0 0
