@<TRIPOS>MOLECULE
MOL002261
   53    56     1     1     0
SMALL
GASTEIGER


@<TRIPOS>ATOM
      1 C          -3.737241   -0.415880    0.442301 C.3       1 <1>         0.010657 
      2 C          -3.650994   -1.881591    0.749016 C.2       1 <1>         0.156099 
      3 C          -2.435045   -2.406646    1.383767 C.2       1 <1>        -0.019449 
      4 C          -1.477634   -1.608324    1.879330 C.2       1 <1>        -0.060063 
      5 C          -1.594604   -0.089225    1.931294 C.3       1 <1>        -0.007200 
      6 C          -3.081801    0.323156    1.631875 C.3       1 <1>        -0.036651 
      7 C          -0.162982   -2.192549    2.332739 C.3       1 <1>        -0.030549 
      8 C           0.885942   -1.736002    1.277129 C.3       1 <1>        -0.045943 
      9 C           0.906964   -0.180958    1.125948 C.3       1 <1>        -0.033789 
     10 C          -0.547212    0.329687    0.836956 C.3       1 <1>        -0.028797 
     11 C           2.010880    0.504846    0.216330 C.3       1 <1>        -0.031852 
     12 C           1.504770    1.127807   -1.123776 C.3       1 <1>        -0.019486 
     13 C           0.199371    1.973367   -0.911067 C.3       1 <1>        -0.046433 
     14 C          -0.451220    1.833568    0.494053 C.3       1 <1>        -0.048642 
     15 C           3.142978   -0.442074   -0.263982 C.3       1 <1>        -0.048781 
     16 C           2.613271   -1.027233   -1.601921 C.3       1 <1>        -0.042734 
     17 C           1.392959   -0.144579   -2.023514 C.3       1 <1>         0.022874 
     18 O          -4.570079   -2.632149    0.463238 O.2       1 <1>        -0.292682 
     19 C          -1.292886    0.533258    3.336409 C.3       1 <1>        -0.055558 
     20 C           2.562109    2.078814   -1.783786 C.3       1 <1>        -0.058657 
     21 C           1.337728    0.127821   -3.516634 C.2       1 <1>         0.133891 
     22 C           0.044598    0.605606   -4.128322 C.3       1 <1>        -0.005766 
     23 O           2.314114   -0.019809   -4.234008 O.2       1 <1>        -0.297390 
     24 H          -4.795578   -0.117415    0.357536 H         1 <1>         0.034515 
     25 H          -3.242502   -0.196347   -0.515050 H         1 <1>         0.034515 
     26 H          -2.335049   -3.491769    1.394771 H         1 <1>         0.065199 
     27 H          -3.704313    0.056045    2.503249 H         1 <1>         0.027776 
     28 H          -3.198703    1.407279    1.496924 H         1 <1>         0.027776 
     29 H          -0.183999   -3.294940    2.355626 H         1 <1>         0.031035 
     30 H           0.102542   -1.863576    3.347227 H         1 <1>         0.031035 
     31 H           0.643446   -2.197289    0.307841 H         1 <1>         0.027114 
     32 H           1.843959   -2.143926    1.631237 H         1 <1>         0.027114 
     33 H           1.198830    0.142949    2.134217 H         1 <1>         0.030663 
     34 H          -0.909631   -0.162295   -0.075528 H         1 <1>         0.031186 
     35 H           2.464170    1.335212    0.789820 H         1 <1>         0.030898 
     36 H           0.378972    3.053587   -1.044499 H         1 <1>         0.027088 
     37 H          -0.542324    1.684572   -1.668847 H         1 <1>         0.027088 
     38 H           0.140816    2.354422    1.264262 H         1 <1>         0.026846 
     39 H          -1.433334    2.323973    0.445780 H         1 <1>         0.026846 
     40 H           3.463957   -1.207134    0.453191 H         1 <1>         0.026839 
     41 H           4.052287    0.153423   -0.449364 H         1 <1>         0.026839 
     42 H           3.430821   -1.013980   -2.340671 H         1 <1>         0.027221 
     43 H           2.311805   -2.080987   -1.483082 H         1 <1>         0.027221 
     44 H           0.485407   -0.707115   -1.768262 H         1 <1>         0.038259 
     45 H          -0.285578    0.378050    3.733861 H         1 <1>         0.023820 
     46 H          -1.979156    0.113962    4.088029 H         1 <1>         0.023820 
     47 H          -1.452603    1.621482    3.296313 H         1 <1>         0.023820 
     48 H           2.125539    2.573988   -2.665066 H         1 <1>         0.023535 
     49 H           2.869093    2.863920   -1.075891 H         1 <1>         0.023535 
     50 H           3.467635    1.568053   -2.137813 H         1 <1>         0.023535 
     51 H          -0.833610    0.182282   -3.618926 H         1 <1>         0.030588 
     52 H           0.003271    0.299369   -5.184628 H         1 <1>         0.030588 
     53 H           0.000248    1.703490   -4.085433 H         1 <1>         0.030588 
@<TRIPOS>BOND
     1    1    2 1    
     2    1    6 1    
     3    1   24 1    
     4    1   25 1    
     5    2    3 1    
     6    2   18 2    
     7    3    4 2    
     8    3   26 1    
     9    4    5 1    
    10    4    7 1    
    11    5    6 1    
    12    5   10 1    
    13    5   19 1    
    14    6   27 1    
    15    6   28 1    
    16    7    8 1    
    17    7   29 1    
    18    7   30 1    
    19    8    9 1    
    20    8   31 1    
    21    8   32 1    
    22    9   10 1    
    23    9   11 1    
    24    9   33 1    
    25   10   14 1    
    26   10   34 1    
    27   11   12 1    
    28   11   15 1    
    29   11   35 1    
    30   12   13 1    
    31   12   17 1    
    32   12   20 1    
    33   13   14 1    
    34   13   36 1    
    35   13   37 1    
    36   14   38 1    
    37   14   39 1    
    38   15   16 1    
    39   15   40 1    
    40   15   41 1    
    41   16   17 1    
    42   16   42 1    
    43   16   43 1    
    44   17   21 1    
    45   17   44 1    
    46   19   45 1    
    47   19   46 1    
    48   19   47 1    
    49   20   48 1    
    50   20   49 1    
    51   20   50 1    
    52   21   22 1    
    53   21   23 2    
    54   22   51 1    
    55   22   52 1    
    56   22   53 1    
@<TRIPOS>SUBSTRUCTURE
     1 ****        1 TEMP              0 ****  ****    0 ROOT 
@<TRIPOS>NORMAL
@<TRIPOS>FF_PBC
FORCE_FIELD_SETUP_FEATURE Force Field Setup information
v1.0  0 0.000000 0.000000 0.000000 0.000000 0.000000 0.000000 NONE 0 0 0 0 1 0 0 0 0 0 0 0 0
