@<TRIPOS>MOLECULE
MOL002311
   45    48     1     1     0
SMALL
GASTEIGER


@<TRIPOS>ATOM
      1 C           4.966131   -1.535382    1.059387 C.2       1 <1>        -0.079306 
      2 C           5.946402   -1.119950    2.135147 C.3       1 <1>        -0.044040 
      3 C           2.641108   -1.457075    0.046694 C.3       1 <1>        -0.004329 
      4 C           3.685751   -1.130821    1.087927 C.2       1 <1>        -0.080815 
      5 C          -0.548635   -2.309973   -1.002409 C.3       1 <1>         0.043070 
      6 O          -0.280586   -1.489703    0.148189 O.3       1 <1>        -0.346564 
      7 C           0.355874   -0.284512   -0.137642 C.ar      1 <1>         0.100390 
      8 C           1.782041   -0.212361   -0.223277 C.ar      1 <1>         0.017013 
      9 C          -0.462767    0.928945   -0.342333 C.ar      1 <1>         0.140383 
     10 C           0.151751    2.176008   -0.654444 C.ar      1 <1>         0.107583 
     11 C           1.626079    2.233661   -0.771282 C.ar      1 <1>         0.000047 
     12 C           2.417203    1.090589   -0.568871 C.ar      1 <1>         0.080997 
     13 C          -1.934182    0.877353   -0.217724 C.ar      1 <1>         0.382233 
     14 C          -2.617757    1.995118   -0.396342 C.ar      1 <1>         0.167192 
     15 C          -1.939650    3.298043   -0.729681 C.2       1 <1>         0.308826 
     16 O          -0.606851    3.341940   -0.849642 O.3       1 <1>        -0.272621 
     17 O          -2.731775   -0.264042    0.083166 O.2       1 <1>        -0.202695 
     18 C          -4.029024    1.654584   -0.203256 C.ar      1 <1>         0.101010 
     19 C          -4.026897    0.317154    0.074727 C.ar      1 <1>         0.367051 
     20 C          -5.305076   -0.381186    0.330412 C.ar      1 <1>         0.072784 
     21 C          -6.508185    0.357882    0.282318 C.ar      1 <1>         0.081518 
     22 C          -6.480769    1.817311   -0.020754 C.ar      1 <1>        -0.030761 
     23 C          -5.260547    2.470768   -0.263998 C.ar      1 <1>        -0.042114 
     24 C           5.523828   -2.423218   -0.031286 C.3       1 <1>        -0.044040 
     25 O           3.800786    1.208591   -0.699181 O.3       1 <1>        -0.359385 
     26 O          -2.610637    4.302379   -0.887445 O.2       1 <1>        -0.258461 
     27 O          -7.712874   -0.302252    0.522524 O.3       1 <1>        -0.359526 
     28 H           6.303659   -2.012493    2.670269 H         1 <1>         0.027427 
     29 H           5.509721   -0.431143    2.873983 H         1 <1>         0.027427 
     30 H           6.806949   -0.617051    1.668953 H         1 <1>         0.027427 
     31 H           3.057314   -1.781816   -0.917396 H         1 <1>         0.035721 
     32 H           2.038312   -2.280608    0.457066 H         1 <1>         0.035721 
     33 H           3.342827   -0.513608    1.919550 H         1 <1>         0.057473 
     34 H           0.381675   -2.587997   -1.521922 H         1 <1>         0.052870 
     35 H          -1.044673   -3.229564   -0.657838 H         1 <1>         0.052870 
     36 H          -1.216670   -1.794517   -1.709962 H         1 <1>         0.052870 
     37 H           2.102114    3.175580   -1.020035 H         1 <1>         0.066960 
     38 H          -5.317152   -1.442472    0.551124 H         1 <1>         0.073776 
     39 H          -7.406139    2.384050   -0.055051 H         1 <1>         0.064346 
     40 H          -5.220796    3.532153   -0.487649 H         1 <1>         0.062744 
     41 H           6.472649   -2.887384    0.278764 H         1 <1>         0.027427 
     42 H           4.826558   -3.238716   -0.273986 H         1 <1>         0.027427 
     43 H           5.711953   -1.823598   -0.934342 H         1 <1>         0.027427 
     44 H           4.218063    0.431190   -1.051271 H         1 <1>         0.217328 
     45 H          -8.480807    0.255841    0.463617 H         1 <1>         0.217318 
@<TRIPOS>BOND
     1    1    2 1    
     2    4    1 2    
     3    1   24 1    
     4    2   28 1    
     5    2   29 1    
     6    2   30 1    
     7    3    4 1    
     8    8    3 1    
     9    3   31 1    
    10    3   32 1    
    11    4   33 1    
    12    6    5 1    
    13    5   34 1    
    14    5   35 1    
    15    5   36 1    
    16    7    6 1    
    17    7    8 2    
    18    7    9 1    
    19    8   12 1    
    20    9   10 2    
    21    9   13 1    
    22   10   11 1    
    23   10   16 1    
    24   11   12 2    
    25   11   37 1    
    26   12   25 1    
    27   13   14 2    
    28   13   17 1    
    29   14   15 1    
    30   14   18 1    
    31   15   16 1    
    32   15   26 2    
    33   17   19 1    
    34   18   19 2    
    35   18   23 1    
    36   19   20 1    
    37   20   21 2    
    38   20   38 1    
    39   21   22 1    
    40   21   27 1    
    41   22   23 2    
    42   22   39 1    
    43   23   40 1    
    44   24   41 1    
    45   24   42 1    
    46   24   43 1    
    47   25   44 1    
    48   27   45 1    
@<TRIPOS>SUBSTRUCTURE
     1 ****        5 TEMP              0 ****  ****    0 ROOT 
@<TRIPOS>NORMAL
@<TRIPOS>FF_PBC
FORCE_FIELD_SETUP_FEATURE Force Field Setup information
v1.0  0 0.000000 0.000000 0.000000 0.000000 0.000000 0.000000 NONE 0 0 0 0 1 0 0 0 0 0 0 0 0
