@<TRIPOS>MOLECULE
MOL001306
   21    21     1     1     0
SMALL
GASTEIGER


@<TRIPOS>ATOM
      1 C           0.604535   -1.177430    0.000023 C.ar      1 <1>         0.083040 
      2 C           0.649000    0.309008   -0.000006 C.ar      1 <1>         0.047024 
      3 C          -0.568580    1.034827    0.000011 C.ar      1 <1>        -0.045875 
      4 C          -1.878045    0.337480    0.000048 C.ar      1 <1>        -0.049627 
      5 C          -1.911128   -1.063100    0.000060 C.ar      1 <1>        -0.056368 
      6 C          -0.649376   -1.838585    0.000050 C.ar      1 <1>        -0.031001 
      7 C          -3.191298    1.126891    0.000072 C.3       1 <1>        -0.039687 
      8 C           1.958305    1.074346   -0.000056 C.2       1 <1>         0.162581 
      9 O           1.929744    2.295209   -0.000038 O.2       1 <1>        -0.292269 
     10 C           3.306348    0.401277   -0.000125 C.3       1 <1>        -0.001323 
     11 O           1.794700   -1.910045    0.000025 O.3       1 <1>        -0.359134 
     12 H          -0.549571    2.119282   -0.000007 H         1 <1>         0.062793 
     13 H          -2.862605   -1.585188    0.000079 H         1 <1>         0.062099 
     14 H          -0.700879   -2.922033    0.000065 H         1 <1>         0.064348 
     15 H          -3.011190    2.212144    0.000332 H         1 <1>         0.027754 
     16 H          -3.773216    0.865776   -0.896573 H         1 <1>         0.027754 
     17 H          -3.773435    0.865392    0.896463 H         1 <1>         0.027754 
     18 H           4.113260    1.150161   -0.000215 H         1 <1>         0.030933 
     19 H           3.416246   -0.220819    0.900178 H         1 <1>         0.030933 
     20 H           3.416120   -0.220895   -0.900391 H         1 <1>         0.030933 
     21 H           1.680967   -2.853899    0.000108 H         1 <1>         0.217339 
@<TRIPOS>BOND
     1    1    2 1    
     2    1    6 2    
     3    1   11 1    
     4    2    3 2    
     5    2    8 1    
     6    3    4 1    
     7    3   12 1    
     8    4    5 2    
     9    4    7 1    
    10    5    6 1    
    11    5   13 1    
    12    6   14 1    
    13    7   15 1    
    14    7   16 1    
    15    7   17 1    
    16    8    9 2    
    17    8   10 1    
    18   10   18 1    
    19   10   19 1    
    20   10   20 1    
    21   11   21 1    
@<TRIPOS>SUBSTRUCTURE
     1 ****        1 TEMP              0 ****  ****    0 ROOT 
@<TRIPOS>NORMAL
@<TRIPOS>FF_PBC
FORCE_FIELD_SETUP_FEATURE Force Field Setup information
v1.0  0 0.000000 0.000000 0.000000 0.000000 0.000000 0.000000 NONE 0 0 0 0 1 0 0 0 0 0 0 0 0
