@<TRIPOS>MOLECULE
MOL003984
   28    27     1     1     0
SMALL
GASTEIGER


@<TRIPOS>ATOM
      1 C           1.271089    4.203400    0.000159 C.3       1 <1>        -0.044049 
      2 C           1.392843    2.694872    0.000045 C.2       1 <1>        -0.079608 
      3 C           0.313092    1.896656   -0.000233 C.2       1 <1>        -0.084989 
      4 C           0.393246    0.385899   -0.000284 C.3       1 <1>        -0.030848 
      5 C          -1.012959   -0.275988    0.000111 C.3       1 <1>        -0.028571 
      6 C          -1.140478   -1.792909    0.000018 C.2       1 <1>        -0.076502 
      7 C          -2.370751   -2.333851    0.000143 C.2       1 <1>        -0.088115 
      8 C          -2.704438   -3.807985    0.000067 C.3       1 <1>        -0.046575 
      9 C           0.109131   -2.651879   -0.000210 C.3       1 <1>        -0.043787 
     10 C           2.800886    2.141340    0.000275 C.3       1 <1>        -0.044049 
     11 H           0.226544    4.549897    0.000207 H         1 <1>         0.027427 
     12 H           1.765911    4.609647    0.895269 H         1 <1>         0.027427 
     13 H           1.765875    4.609776   -0.894912 H         1 <1>         0.027427 
     14 H          -0.678020    2.351680   -0.000427 H         1 <1>         0.057155 
     15 H           0.941469    0.071357   -0.902255 H         1 <1>         0.031044 
     16 H           0.942025    0.071346    0.901345 H         1 <1>         0.031044 
     17 H          -1.548017    0.091051    0.891517 H         1 <1>         0.031285 
     18 H          -1.548538    0.091168   -0.890935 H         1 <1>         0.031285 
     19 H          -3.231760   -1.662522    0.000317 H         1 <1>         0.056878 
     20 H          -1.830165   -4.472536   -0.000201 H         1 <1>         0.027178 
     21 H          -3.305083   -4.036795    0.893389 H         1 <1>         0.027178 
     22 H          -3.305480   -4.036614   -0.893034 H         1 <1>         0.027178 
     23 H           1.061203   -2.109747   -0.000203 H         1 <1>         0.027436 
     24 H           0.104065   -3.290422   -0.896303 H         1 <1>         0.027436 
     25 H           0.104217   -3.290689    0.895693 H         1 <1>         0.027436 
     26 H           3.554061    2.944039   -0.000398 H         1 <1>         0.027427 
     27 H           2.964925    1.525719    0.896960 H         1 <1>         0.027427 
     28 H           2.964808    1.524392   -0.895517 H         1 <1>         0.027427 
@<TRIPOS>BOND
     1    1    2 1    
     2    1   11 1    
     3    1   12 1    
     4    1   13 1    
     5    2    3 2    
     6    2   10 1    
     7    3    4 1    
     8    3   14 1    
     9    4    5 1    
    10    4   15 1    
    11    4   16 1    
    12    5    6 1    
    13    5   17 1    
    14    5   18 1    
    15    6    7 2    
    16    6    9 1    
    17    7    8 1    
    18    7   19 1    
    19    8   20 1    
    20    8   21 1    
    21    8   22 1    
    22    9   23 1    
    23    9   24 1    
    24    9   25 1    
    25   10   26 1    
    26   10   27 1    
    27   10   28 1    
@<TRIPOS>SUBSTRUCTURE
     1 ****        1 TEMP              0 ****  ****    0 ROOT 
@<TRIPOS>NORMAL
@<TRIPOS>FF_PBC
FORCE_FIELD_SETUP_FEATURE Force Field Setup information
v1.0  0 0.000000 0.000000 0.000000 0.000000 0.000000 0.000000 NONE 0 0 0 0 1 0 0 0 0 0 0 0 0
