@<TRIPOS>MOLECULE
MOL001913
   21    20     1     1     0
SMALL
GASTEIGER


@<TRIPOS>ATOM
      1 C          -1.235103    0.771144   -0.200886 C.2       1 <1>         0.290707 
      2 C          -2.575942    0.145887    0.112350 C.3       1 <1>         0.137216 
      3 O          -0.162142    0.041397    0.144544 O.3       1 <1>        -0.313273 
      4 O          -1.153155    1.864289   -0.741200 O.2       1 <1>        -0.262099 
      5 C          -2.649022   -1.281599   -0.489352 C.3       1 <1>        -0.029575 
      6 O          -2.779208    0.103561    1.540149 O.3       1 <1>        -0.382046 
      7 C           1.099152    0.667892   -0.163278 C.3       1 <1>         0.056896 
      8 C           2.229955   -0.294780    0.277602 C.3       1 <1>        -0.031718 
      9 C           3.633070    0.301018   -0.007690 C.3       1 <1>        -0.063178 
     10 H          -3.356660    0.773887   -0.352302 H         1 <1>         0.069535 
     11 H          -3.648496   -1.714617   -0.329253 H         1 <1>         0.025946 
     12 H          -2.446835   -1.252256   -1.571432 H         1 <1>         0.025946 
     13 H          -1.904362   -1.932393   -0.005910 H         1 <1>         0.025946 
     14 H          -3.621011   -0.264408    1.789853 H         1 <1>         0.210447 
     15 H           1.185279    0.857920   -1.246705 H         1 <1>         0.056571 
     16 H           1.198306    1.622774    0.380457 H         1 <1>         0.056571 
     17 H           2.128005   -0.497258    1.356910 H         1 <1>         0.028482 
     18 H           2.117931   -1.249330   -0.263231 H         1 <1>         0.028482 
     19 H           4.415549   -0.405275    0.312054 H         1 <1>         0.023048 
     20 H           3.756547    0.496466   -1.084347 H         1 <1>         0.023048 
     21 H           3.768243    1.245780    0.541566 H         1 <1>         0.023048 
@<TRIPOS>BOND
     1    1    2 1    
     2    1    3 1    
     3    1    4 2    
     4    2    5 1    
     5    2    6 1    
     6    2   10 1    
     7    3    7 1    
     8    5   11 1    
     9    5   12 1    
    10    5   13 1    
    11    6   14 1    
    12    7    8 1    
    13    7   15 1    
    14    7   16 1    
    15    8    9 1    
    16    8   17 1    
    17    8   18 1    
    18    9   19 1    
    19    9   20 1    
    20    9   21 1    
@<TRIPOS>SUBSTRUCTURE
     1 ****        1 TEMP              0 ****  ****    0 ROOT 
@<TRIPOS>NORMAL
@<TRIPOS>FF_PBC
FORCE_FIELD_SETUP_FEATURE Force Field Setup information
v1.0  0 0.000000 0.000000 0.000000 0.000000 0.000000 0.000000 NONE 0 0 0 0 1 0 0 0 0 0 0 0 0
