@<TRIPOS>MOLECULE
MOL002819
   47    50     1     1     0
SMALL
GASTEIGER


@<TRIPOS>ATOM
      1 C           1.974960    0.229535    1.728243 C.2       1 <1>         0.039555 
      2 O           1.599284   -1.045482    1.536668 O.3       1 <1>        -0.322642 
      3 C           0.823821   -1.283625    0.349954 C.3       1 <1>         0.173449 
      4 C           1.989265    1.137778    0.741823 C.2       1 <1>        -0.055069 
      5 O          -3.568536   -1.989357   -0.806859 O.3       1 <1>        -0.384103 
      6 C          -2.729747   -1.511684    0.268422 C.3       1 <1>         0.134212 
      7 C          -1.477641   -0.830919   -0.345648 C.3       1 <1>         0.190790 
      8 O          -0.449865   -0.675572    0.652050 O.3       1 <1>        -0.319338 
      9 C          -3.479975   -0.536309    1.213269 C.3       1 <1>         0.114063 
     10 C          -3.779316    0.776133    0.448205 C.3       1 <1>         0.111896 
     11 C          -2.454872    1.386055   -0.100206 C.3       1 <1>         0.113007 
     12 O          -1.768082    0.442915   -0.956454 O.3       1 <1>        -0.340431 
     13 O          -4.710968    0.464926   -0.608731 O.3       1 <1>        -0.386488 
     14 O          -0.640127    2.978004    0.382225 O.3       1 <1>        -0.392366 
     15 C          -1.584684    2.076781    0.994883 C.3       1 <1>         0.073015 
     16 C           1.533699   -0.688674   -0.890118 C.3       1 <1>         0.053077 
     17 C           1.628078    0.834112   -0.690567 C.3       1 <1>         0.018020 
     18 C           2.744305    1.255172   -1.669140 C.3       1 <1>         0.090912 
     19 C           3.808269    0.138256   -1.553659 C.3       1 <1>         0.117388 
     20 C           2.997338   -1.158332   -1.095101 C.3       1 <1>         0.129350 
     21 O           3.608105   -1.002839   -2.348075 O.3       1 <1>        -0.359231 
     22 O           2.186153    1.292641   -2.995180 O.3       1 <1>        -0.388532 
     23 H           0.683474    1.338830   -0.942339 H         1 <1>         0.037476 
     24 H           0.999064   -0.916084   -1.825618 H         1 <1>         0.038618 
     25 O          -2.708013   -0.312608    2.410174 O.3       1 <1>        -0.386401 
     26 C           3.734063   -2.110155   -0.116516 C.3       1 <1>         0.076212 
     27 O           2.963334   -3.313290    0.062067 O.3       1 <1>        -0.392067 
     28 H          -1.172312   -1.500054   -1.166092 H         1 <1>         0.093840 
     29 H           2.289801    0.507567    2.734396 H         1 <1>         0.088268 
     30 H           0.693213   -2.372876    0.247498 H         1 <1>         0.091843 
     31 H           2.286245    2.159136    0.983292 H         1 <1>         0.059524 
     32 H          -4.361910   -2.424728   -0.512963 H         1 <1>         0.210110 
     33 H          -2.387308   -2.378705    0.859851 H         1 <1>         0.067096 
     34 H          -4.436311   -1.006287    1.504016 H         1 <1>         0.064758 
     35 H          -4.277218    1.484448    1.132725 H         1 <1>         0.064673 
     36 H          -2.741197    2.209774   -0.773553 H         1 <1>         0.064668 
     37 H          -4.954697    1.212677   -1.145009 H         1 <1>         0.210004 
     38 H          -0.097290    3.445152    1.010700 H         1 <1>         0.209508 
     39 H          -2.239848    2.677822    1.647669 H         1 <1>         0.058370 
     40 H          -1.057140    1.352926    1.629909 H         1 <1>         0.058370 
     41 H           3.164132    2.243025   -1.412875 H         1 <1>         0.062600 
     42 H           4.660746    0.251927   -0.866593 H         1 <1>         0.065209 
     43 H           2.844944    1.451646   -3.663775 H         1 <1>         0.209915 
     44 H          -3.146550    0.236894    3.052401 H         1 <1>         0.210005 
     45 H           3.905858   -1.597099    0.842829 H         1 <1>         0.058673 
     46 H           4.715114   -2.369231   -0.549119 H         1 <1>         0.058673 
     47 H           3.370685   -3.933052    0.660507 H         1 <1>         0.209521 
@<TRIPOS>BOND
     1    2    1 1    
     2    1    4 2    
     3    1   29 1    
     4    3    2 1    
     5    8    3 1    
     6    3   16 1    
     7    3   30 1    
     8    4   17 1    
     9    4   31 1    
    10    6    5 1    
    11    5   32 1    
    12    7    6 1    
    13    6    9 1    
    14    6   33 1    
    15    7    8 1    
    16    7   12 1    
    17    7   28 1    
    18    9   10 1    
    19    9   25 1    
    20    9   34 1    
    21   10   11 1    
    22   10   13 1    
    23   10   35 1    
    24   11   12 1    
    25   11   15 1    
    26   11   36 1    
    27   13   37 1    
    28   15   14 1    
    29   14   38 1    
    30   15   39 1    
    31   15   40 1    
    32   16   17 1    
    33   16   20 1    
    34   16   24 1    
    35   17   18 1    
    36   17   23 1    
    37   18   19 1    
    38   18   22 1    
    39   18   41 1    
    40   19   20 1    
    41   19   21 1    
    42   19   42 1    
    43   20   21 1    
    44   20   26 1    
    45   22   43 1    
    46   25   44 1    
    47   26   27 1    
    48   26   45 1    
    49   26   46 1    
    50   27   47 1    
@<TRIPOS>SUBSTRUCTURE
     1 ****        5 TEMP              0 ****  ****    0 ROOT 
@<TRIPOS>NORMAL
@<TRIPOS>FF_PBC
FORCE_FIELD_SETUP_FEATURE Force Field Setup information
v1.0  0 0.000000 0.000000 0.000000 0.000000 0.000000 0.000000 NONE 0 0 0 0 1 0 0 0 0 0 0 0 0
