@<TRIPOS>MOLECULE
MOL001910
   76    82     1     1     0
SMALL
GASTEIGER


@<TRIPOS>ATOM
      1 C          -4.047584   -3.203133   -1.055382 C.3       1 <1>         0.062974 
      2 C          -2.700853   -3.295281   -1.811092 C.3       1 <1>        -0.025746 
      3 C          -1.886843   -1.963076   -1.819550 C.3       1 <1>        -0.044644 
      4 C          -3.831767   -2.758642    0.439268 C.3       1 <1>         0.020274 
      5 C          -3.868442   -4.043085    1.344056 C.3       1 <1>         0.052200 
      6 C          -5.074547   -1.939037    0.942546 C.3       1 <1>        -0.054830 
      7 C          -2.476001   -1.943654    0.631685 C.3       1 <1>        -0.025413 
      8 C          -1.236692   -2.788113    1.124740 C.3       1 <1>        -0.048535 
      9 C           0.197781   -2.221346    0.847115 C.3       1 <1>        -0.046472 
     10 C           0.312712   -0.668935    0.870810 C.3       1 <1>        -0.020372 
     11 C          -0.147330   -0.259852    2.323986 C.3       1 <1>        -0.058698 
     12 C           1.793501   -0.080836    0.544476 C.3       1 <1>        -0.018191 
     13 C           2.736571   -1.156959   -0.088896 C.3       1 <1>        -0.058620 
     14 C           2.521836    0.484156    1.823578 C.3       1 <1>        -0.045694 
     15 C           3.721389    1.433708    1.569843 C.3       1 <1>        -0.037234 
     16 C           3.336292    2.611791    0.623711 C.3       1 <1>         0.063156 
     17 C           2.138763    3.410812    1.145752 C.2       1 <1>         0.271485 
     18 C           4.604287    3.505136    0.449813 C.3       1 <1>        -0.019521 
     19 C           4.585784    4.387051   -0.769603 C.2       1 <1>        -0.084002 
     20 C           3.737690    4.213618   -1.789778 C.2       1 <1>        -0.076199 
     21 C           3.760593    5.108728   -3.010652 C.3       1 <1>        -0.043778 
     22 C           2.697192    3.121241   -1.786037 C.3       1 <1>        -0.027741 
     23 C           2.978117    1.998607   -0.736935 C.3       1 <1>        -0.014075 
     24 C           1.737677    1.094198   -0.502471 C.3       1 <1>         0.026214 
     25 C           0.609697    2.019499   -0.032222 C.3       1 <1>         0.209225 
     26 C          -0.840845    1.352378   -0.007066 C.3       1 <1>         0.120319 
     27 C          -0.716872   -0.189355   -0.221642 C.3       1 <1>         0.002055 
     28 C          -2.038080   -1.023035   -0.553888 C.3       1 <1>        -0.022639 
     29 C          -3.112045    0.059286   -0.913407 C.3       1 <1>        -0.058934 
     30 O           2.331160    4.437620    1.774082 O.2       1 <1>        -0.264244 
     31 O           0.850746    3.039381    0.955319 O.3       1 <1>        -0.278588 
     32 O          -3.604672   -3.696169    2.716224 O.3       1 <1>        -0.394374 
     33 O          -4.925686   -2.393631   -1.862735 O.3       1 <1>        -0.391162 
     34 O          -0.386784    2.243011   -0.993026 O.3       1 <1>        -0.336686 
     35 H          -4.498741   -4.212293   -1.092405 H         1 <1>         0.059936 
     36 H          -2.901708   -3.601211   -2.853589 H         1 <1>         0.029039 
     37 H          -2.113827   -4.114265   -1.369002 H         1 <1>         0.029039 
     38 H          -0.849946   -2.284742   -1.995603 H         1 <1>         0.027150 
     39 H          -2.166535   -1.392631   -2.721196 H         1 <1>         0.027150 
     40 H          -4.865602   -4.515755    1.296230 H         1 <1>         0.056334 
     41 H          -3.161187   -4.811984    0.999241 H         1 <1>         0.056334 
     42 H          -5.207684   -0.979007    0.436563 H         1 <1>         0.023667 
     43 H          -6.009434   -2.502507    0.803372 H         1 <1>         0.023667 
     44 H          -4.988682   -1.717518    2.017423 H         1 <1>         0.023667 
     45 H          -2.735894   -1.238044    1.425382 H         1 <1>         0.031292 
     46 H          -1.333337   -2.954915    2.210193 H         1 <1>         0.026847 
     47 H          -1.208237   -3.789805    0.680447 H         1 <1>         0.026847 
     48 H           0.515359   -2.584866   -0.138609 H         1 <1>         0.027088 
     49 H           0.883140   -2.662512    1.590163 H         1 <1>         0.027088 
     50 H          -0.240709    0.823261    2.473921 H         1 <1>         0.023534 
     51 H          -1.105314   -0.647303    2.658707 H         1 <1>         0.023534 
     52 H           0.553227   -0.658178    3.071583 H         1 <1>         0.023534 
     53 H           3.734187   -0.760423   -0.314743 H         1 <1>         0.023535 
     54 H           2.894786   -2.009509    0.586566 H         1 <1>         0.023535 
     55 H           2.332000   -1.528738   -1.041442 H         1 <1>         0.023535 
     56 H           2.849289   -0.346652    2.471294 H         1 <1>         0.027108 
     57 H           1.898209    1.150996    2.427270 H         1 <1>         0.027108 
     58 H           4.566116    0.855247    1.164776 H         1 <1>         0.027577 
     59 H           4.069075    1.864096    2.526400 H         1 <1>         0.027577 
     60 H           5.502102    2.881118    0.315056 H         1 <1>         0.031770 
     61 H           4.761703    4.116114    1.352039 H         1 <1>         0.031770 
     62 H           5.320506    5.193104   -0.805309 H         1 <1>         0.057183 
     63 H           4.483769    5.933294   -2.915850 H         1 <1>         0.027436 
     64 H           4.030954    4.515495   -3.897201 H         1 <1>         0.027436 
     65 H           2.762854    5.545183   -3.168912 H         1 <1>         0.027436 
     66 H           2.637612    2.660216   -2.785433 H         1 <1>         0.031297 
     67 H           1.746704    3.642120   -1.598010 H         1 <1>         0.031297 
     68 H           3.838032    1.420589   -1.115969 H         1 <1>         0.031863 
     69 H           1.572357    0.738055   -1.530105 H         1 <1>         0.036224 
     70 H          -1.474288    1.785807    0.782225 H         1 <1>         0.065424 
     71 H          -0.250549   -0.279940   -1.201363 H         1 <1>         0.033834 
     72 H          -2.707202    0.772931   -1.647680 H         1 <1>         0.023526 
     73 H          -3.425783    0.623510   -0.024824 H         1 <1>         0.023526 
     74 H          -4.007307   -0.347115   -1.383544 H         1 <1>         0.023526 
     75 H          -3.622241   -4.440159    3.310921 H         1 <1>         0.209420 
     76 H          -5.836131   -2.381360   -1.585962 H         1 <1>         0.209801 
@<TRIPOS>BOND
     1    1    2 1    
     2    1    4 1    
     3    1   33 1    
     4    1   35 1    
     5    2    3 1    
     6    2   36 1    
     7    2   37 1    
     8    3   28 1    
     9    3   38 1    
    10    3   39 1    
    11    4    5 1    
    12    4    6 1    
    13    4    7 1    
    14    5   32 1    
    15    5   40 1    
    16    5   41 1    
    17    6   42 1    
    18    6   43 1    
    19    6   44 1    
    20    7    8 1    
    21    7   28 1    
    22    7   45 1    
    23    8    9 1    
    24    8   46 1    
    25    8   47 1    
    26    9   10 1    
    27    9   48 1    
    28    9   49 1    
    29   10   11 1    
    30   10   12 1    
    31   10   27 1    
    32   11   50 1    
    33   11   51 1    
    34   11   52 1    
    35   12   13 1    
    36   12   14 1    
    37   12   24 1    
    38   13   53 1    
    39   13   54 1    
    40   13   55 1    
    41   14   15 1    
    42   14   56 1    
    43   14   57 1    
    44   15   16 1    
    45   15   58 1    
    46   15   59 1    
    47   16   17 1    
    48   16   18 1    
    49   16   23 1    
    50   17   30 2    
    51   17   31 1    
    52   18   19 1    
    53   18   60 1    
    54   18   61 1    
    55   19   20 2    
    56   19   62 1    
    57   20   21 1    
    58   20   22 1    
    59   21   63 1    
    60   21   64 1    
    61   21   65 1    
    62   22   23 1    
    63   22   66 1    
    64   22   67 1    
    65   23   24 1    
    66   23   68 1    
    67   24   25 1    
    68   24   69 1    
    69   25   26 1    
    70   25   31 1    
    71   25   34 1    
    72   26   27 1    
    73   26   34 1    
    74   26   70 1    
    75   27   28 1    
    76   27   71 1    
    77   28   29 1    
    78   29   72 1    
    79   29   73 1    
    80   29   74 1    
    81   32   75 1    
    82   33   76 1    
@<TRIPOS>SUBSTRUCTURE
     1 ****        1 TEMP              0 ****  ****    0 ROOT 
@<TRIPOS>NORMAL
@<TRIPOS>FF_PBC
FORCE_FIELD_SETUP_FEATURE Force Field Setup information
v1.0  0 0.000000 0.000000 0.000000 0.000000 0.000000 0.000000 NONE 0 0 0 0 1 0 0 0 0 0 0 0 0
