@<TRIPOS>MOLECULE
MOL004662
   20    20     1     1     0
SMALL
GASTEIGER


@<TRIPOS>ATOM
      1 C           0.676941   -0.166615    0.853769 C.3       1 <1>         0.015654 
      2 C          -0.578368    0.729459    1.001927 C.3       1 <1>        -0.033474 
      3 C           0.419210   -1.266387   -0.206911 C.3       1 <1>        -0.033474 
      4 N           0.871107   -0.839972    2.130426 N.2       1 <1>        -0.456139 
      5 C          -0.968416    1.364745   -0.358500 C.3       1 <1>        -0.051228 
      6 C           0.032212   -0.638605   -1.571667 C.3       1 <1>        -0.051228 
      7 C           2.009582   -0.629441    2.671112 C.2       1 <1>        -0.145956 
      8 C          -1.223027    0.259001   -1.415775 C.3       1 <1>        -0.052929 
      9 O           2.927034    0.054271    2.243896 O.2       1 <1>        -0.515857 
     10 H           1.503971    0.469103    0.490054 H         1 <1>         0.051319 
     11 H          -1.415217    0.120788    1.381029 H         1 <1>         0.028471 
     12 H          -0.367882    1.518227    1.742845 H         1 <1>         0.028471 
     13 H           1.330207   -1.877808   -0.314780 H         1 <1>         0.028471 
     14 H          -0.392831   -1.924209    0.143009 H         1 <1>         0.028471 
     15 H          -1.877243    1.976868   -0.233579 H         1 <1>         0.026592 
     16 H          -0.156015    2.025930   -0.702881 H         1 <1>         0.026592 
     17 H          -0.170950   -1.439120   -2.302580 H         1 <1>         0.026592 
     18 H           0.873306   -0.035116   -1.951095 H         1 <1>         0.026592 
     19 H          -2.080164   -0.359296   -1.101621 H         1 <1>         0.026530 
     20 H          -1.472166    0.721852   -2.385425 H         1 <1>         0.026530 
@<TRIPOS>BOND
     1    1    2 1    
     2    1    3 1    
     3    1    4 1    
     4    1   10 1    
     5    2    5 1    
     6    2   11 1    
     7    2   12 1    
     8    3    6 1    
     9    3   13 1    
    10    3   14 1    
    11    4    7 2    
    12    5    8 1    
    13    5   15 1    
    14    5   16 1    
    15    6    8 1    
    16    6   17 1    
    17    6   18 1    
    18    7    9 2    
    19    8   19 1    
    20    8   20 1    
@<TRIPOS>SUBSTRUCTURE
     1 ****        1 TEMP              0 ****  ****    0 ROOT 
@<TRIPOS>NORMAL
@<TRIPOS>FF_PBC
FORCE_FIELD_SETUP_FEATURE Force Field Setup information
v1.0  0 0.000000 0.000000 0.000000 0.000000 0.000000 0.000000 NONE 0 0 0 0 1 0 0 0 0 0 0 0 0
