@<TRIPOS>MOLECULE
MOL005840
   30    32     1     1     0
SMALL
GASTEIGER


@<TRIPOS>ATOM
      1 C           1.174326    0.497534    0.651857 C.ar      1 <1>         0.039119 
      2 C           0.012840   -0.155362    1.310892 C.ar      1 <1>         0.003266 
      3 N           1.004769    1.443420   -0.301608 N.pl3     1 <1>        -0.314006 
      4 C           2.484560    0.129138    1.018576 C.ar      1 <1>        -0.039929 
      5 C           0.268588   -1.211489    2.321222 C.ar      1 <1>        -0.016114 
      6 C          -1.331694    0.199210    1.007629 C.ar      1 <1>        -0.052258 
      7 C           0.387220    1.176619   -1.480645 C.ar      1 <1>         0.031323 
      8 C           2.730595   -0.913912    2.042453 C.ar      1 <1>        -0.059415 
      9 C           1.666180   -1.563948    2.668463 C.ar      1 <1>        -0.053915 
     10 C          -0.812907   -1.868347    2.946888 C.ar      1 <1>        -0.053972 
     11 C          -2.457287   -0.496405    1.677150 C.ar      1 <1>        -0.061109 
     12 C           0.010926    2.296479   -2.380802 C.ar      1 <1>        -0.040542 
     13 C           0.094011   -0.145503   -1.881013 C.ar      1 <1>        -0.040542 
     14 C          -2.206992   -1.499481    2.609268 C.ar      1 <1>        -0.061165 
     15 C          -0.624610    2.046252   -3.605524 C.ar      1 <1>        -0.060008 
     16 C          -0.586266   -0.406342   -3.171567 C.ar      1 <1>        -0.060008 
     17 C          -0.931467    0.654814   -4.009979 C.ar      1 <1>        -0.061645 
     18 H           1.410611    2.377683   -0.142455 H         1 <1>         0.152167 
     19 H           3.328682    0.612162    0.537275 H         1 <1>         0.063623 
     20 H          -1.552614    0.977048    0.285853 H         1 <1>         0.062420 
     21 H           3.750823   -1.175264    2.303208 H         1 <1>         0.061833 
     22 H           1.866586   -2.329019    3.411620 H         1 <1>         0.062363 
     23 H          -0.630940   -2.645447    3.681218 H         1 <1>         0.062362 
     24 H          -3.480028   -0.223264    1.436307 H         1 <1>         0.061777 
     25 H           0.226836    3.319891   -2.092433 H         1 <1>         0.063604 
     26 H           0.361099   -0.990960   -1.257579 H         1 <1>         0.063604 
     27 H          -3.032197   -2.012237    3.092213 H         1 <1>         0.061776 
     28 H          -0.893578    2.870684   -4.259317 H         1 <1>         0.061815 
     29 H          -0.814083   -1.427369   -3.461883 H         1 <1>         0.061815 
     30 H          -1.423991    0.463514   -4.957588 H         1 <1>         0.061760 
@<TRIPOS>BOND
     1    1    2 1    
     2    1    3 1    
     3    1    4 2    
     4    2    5 1    
     5    2    6 2    
     6    3    7 1    
     7    3   18 1    
     8    4    8 1    
     9    4   19 1    
    10    5    9 1    
    11    5   10 2    
    12    6   11 1    
    13    6   20 1    
    14    7   12 1    
    15    7   13 2    
    16    8    9 2    
    17    8   21 1    
    18    9   22 1    
    19   10   14 1    
    20   10   23 1    
    21   11   14 2    
    22   11   24 1    
    23   12   15 2    
    24   12   25 1    
    25   13   16 1    
    26   13   26 1    
    27   14   27 1    
    28   15   17 1    
    29   15   28 1    
    30   16   17 2    
    31   16   29 1    
    32   17   30 1    
@<TRIPOS>SUBSTRUCTURE
     1 ****        1 TEMP              0 ****  ****    0 ROOT 
@<TRIPOS>NORMAL
@<TRIPOS>FF_PBC
FORCE_FIELD_SETUP_FEATURE Force Field Setup information
v1.0  0 0.000000 0.000000 0.000000 0.000000 0.000000 0.000000 NONE 0 0 0 0 1 0 0 0 0 0 0 0 0
