@<TRIPOS>MOLECULE
MOL002291
   95   102     1     1     0
SMALL
GASTEIGER


@<TRIPOS>ATOM
      1 C          -5.446823    4.604132    4.271869 C.ar      1 <1>         0.133068 
      2 C          -5.255214    3.283483    3.981200 C.ar      1 <1>         0.113422 
      3 C          -3.883246    2.715399    3.909791 C.ar      1 <1>         0.030680 
      4 C          -2.792554    3.550795    4.119818 C.ar      1 <1>         0.059311 
      5 C          -3.031268    4.980460    4.440654 C.ar      1 <1>        -0.015777 
      6 C          -4.276786    5.483243    4.512564 C.ar      1 <1>         0.105558 
      7 O          -0.493764    3.726475    4.629701 O.2       1 <1>        -0.259202 
      8 C          -1.350191    3.099312    4.025889 C.2       1 <1>         0.294645 
      9 O          -4.455594    6.834156    4.814284 O.3       1 <1>        -0.357199 
     10 O          -6.735430    5.144436    4.350477 O.3       1 <1>        -0.355381 
     11 O          -6.365531    2.471217    3.752386 O.3       1 <1>        -0.356710 
     12 O          -1.018046    2.075151    3.231644 O.3       1 <1>        -0.308739 
     13 C          -3.761344    1.260410    3.641954 C.ar      1 <1>         0.030680 
     14 C          -4.263966    0.428087    4.603070 C.ar      1 <1>         0.113422 
     15 C          -4.210836   -1.043711    4.433042 C.ar      1 <1>         0.133068 
     16 C          -3.669593   -1.575761    3.310502 C.ar      1 <1>         0.105558 
     17 C          -3.117198   -0.679086    2.263593 C.ar      1 <1>        -0.015776 
     18 C          -3.145463    0.682920    2.418872 C.ar      1 <1>         0.059321 
     19 C           0.320929    2.161405    2.706235 C.3       1 <1>         0.086200 
     20 C           0.550271    1.300279    1.427118 C.3       1 <1>         0.114769 
     21 C          -0.444652    1.575787    0.248154 C.3       1 <1>         0.125907 
     22 C           0.144440    0.852961   -0.993705 C.3       1 <1>         0.128903 
     23 C           0.237574   -0.668621   -0.656748 C.3       1 <1>         0.148577 
     24 C           1.040586   -0.935667    0.651542 C.3       1 <1>         0.197745 
     25 O           0.543323   -0.112015    1.730739 O.3       1 <1>        -0.339971 
     26 O          -4.845342    0.978174    5.748770 O.3       1 <1>        -0.356710 
     27 O          -4.728985   -1.864140    5.440651 O.3       1 <1>        -0.355381 
     28 O          -3.636813   -2.965249    3.163635 O.3       1 <1>        -0.357199 
     29 C          -2.513331    1.557038    1.356248 C.2       1 <1>         0.294981 
     30 O          -1.732824    0.954386    0.459600 O.3       1 <1>        -0.302697 
     31 O          -2.670532    2.767563    1.347192 O.2       1 <1>        -0.259191 
     32 O          -0.725328    1.039301   -2.140501 O.3       1 <1>        -0.302582 
     33 O           0.541249   -1.495185   -1.801147 O.3       1 <1>        -0.300264 
     34 O           2.433455   -0.595738    0.502850 O.3       1 <1>        -0.278289 
     35 C           3.352776   -1.572636    0.617718 C.2       1 <1>         0.296291 
     36 C           3.118727   -3.065525    0.756013 C.ar      1 <1>         0.051575 
     37 O           4.516843   -1.210073    0.630773 O.2       1 <1>        -0.259141 
     38 C           1.630581   -1.148378   -2.490355 C.2       1 <1>         0.295056 
     39 C           1.707520   -1.584716   -3.934061 C.ar      1 <1>         0.059322 
     40 O           2.522157   -0.456576   -2.032986 O.2       1 <1>        -0.259190 
     41 C           3.847709   -3.786639    1.828438 C.ar      1 <1>        -0.016368 
     42 C           3.683664   -5.120343    2.008226 C.ar      1 <1>         0.105520 
     43 C           2.756880   -5.881395    1.132212 C.ar      1 <1>         0.132457 
     44 C           2.086676   -5.238711    0.139173 C.ar      1 <1>         0.105520 
     45 C           2.291075   -3.781674   -0.064925 C.ar      1 <1>        -0.016368 
     46 O           1.211699   -5.963273   -0.676469 O.3       1 <1>        -0.357199 
     47 O           2.585016   -7.253643    1.344856 O.3       1 <1>        -0.355395 
     48 O           4.391825   -5.769263    3.020415 O.3       1 <1>        -0.357199 
     49 C           2.016763   -0.546638   -4.945019 C.ar      1 <1>         0.030680 
     50 C           2.093485   -0.885995   -6.263938 C.ar      1 <1>         0.113422 
     51 C           1.847710   -2.288608   -6.681694 C.ar      1 <1>         0.133068 
     52 C           1.556576   -3.240002   -5.744724 C.ar      1 <1>         0.105558 
     53 C           1.482081   -2.867437   -4.307655 C.ar      1 <1>        -0.015776 
     54 O           1.330018   -4.555575   -6.159045 O.3       1 <1>        -0.357199 
     55 O           1.917365   -2.615979   -8.039268 O.3       1 <1>        -0.355381 
     56 O           2.404723    0.092966   -7.210797 O.3       1 <1>        -0.356710 
     57 C           2.226558    0.853518   -4.501216 C.ar      1 <1>         0.030680 
     58 C           1.186245    1.550360   -3.695352 C.ar      1 <1>         0.059321 
     59 C           1.409516    2.823744   -3.271712 C.ar      1 <1>        -0.015776 
     60 C           2.667192    3.528719   -3.607285 C.ar      1 <1>         0.105558 
     61 C           3.620211    2.902843   -4.347847 C.ar      1 <1>         0.133068 
     62 C           3.398396    1.512774   -4.817081 C.ar      1 <1>         0.113422 
     63 O           4.390722    0.884014   -5.567602 O.3       1 <1>        -0.356710 
     64 O           4.804255    3.575684   -4.660799 O.3       1 <1>        -0.355381 
     65 O           2.854270    4.836728   -3.156234 O.3       1 <1>        -0.357199 
     66 C          -0.129236    0.886608   -3.337173 C.2       1 <1>         0.294982 
     67 O          -0.686263    0.206060   -4.180967 O.2       1 <1>        -0.259191 
     68 H          -2.191431    5.643375    4.619135 H         1 <1>         0.065199 
     69 H          -5.378184    7.070545    4.814275 H         1 <1>         0.217423 
     70 H          -7.411736    4.489444    4.205359 H         1 <1>         0.217502 
     71 H          -6.438648    1.807618    4.430733 H         1 <1>         0.217444 
     72 H          -2.679183   -1.117495    1.374318 H         1 <1>         0.065199 
     73 H           1.037134    1.868827    3.491960 H         1 <1>         0.059272 
     74 H           0.534360    3.202663    2.401806 H         1 <1>         0.059272 
     75 H           1.572917    1.585709    1.120306 H         1 <1>         0.064721 
     76 H          -0.528444    2.651111    0.016557 H         1 <1>         0.065613 
     77 H           1.143528    1.284578   -1.152119 H         1 <1>         0.065725 
     78 H          -0.785192   -1.013671   -0.441517 H         1 <1>         0.068056 
     79 H           0.842517   -1.953831    1.020204 H         1 <1>         0.094298 
     80 H          -5.076929    0.303740    6.380650 H         1 <1>         0.217444 
     81 H          -4.644737   -2.788698    5.225918 H         1 <1>         0.217502 
     82 H          -3.192130   -3.257139    2.375908 H         1 <1>         0.217423 
     83 H           4.525789   -3.244010    2.478671 H         1 <1>         0.065181 
     84 H           1.779283   -3.296557   -0.878905 H         1 <1>         0.065181 
     85 H           0.622992   -5.418813   -1.187332 H         1 <1>         0.217423 
     86 H           1.964074   -7.637681    0.732469 H         1 <1>         0.217501 
     87 H           4.193354   -6.700468    3.040186 H         1 <1>         0.217423 
     88 H           1.246945   -3.615965   -3.558868 H         1 <1>         0.065199 
     89 H           1.244418   -5.173790   -5.441979 H         1 <1>         0.217423 
     90 H           1.730280   -3.537784   -8.193478 H         1 <1>         0.217502 
     91 H           2.289396   -0.237952   -8.096580 H         1 <1>         0.217444 
     92 H           0.662733    3.347787   -2.684401 H         1 <1>         0.065199 
     93 H           4.090275    0.735642   -6.459754 H         1 <1>         0.217444 
     94 H           5.394168    3.022455   -5.164057 H         1 <1>         0.217502 
     95 H           3.673276    5.212004   -3.467281 H         1 <1>         0.217423 
@<TRIPOS>BOND
     1    1    2 2    
     2    1    6 1    
     3    1   10 1    
     4    2    3 1    
     5    2   11 1    
     6    3    4 2    
     7    3   13 1    
     8    4    5 1    
     9    4    8 1    
    10    5    6 2    
    11    5   68 1    
    12    6    9 1    
    13    8    7 2    
    14    8   12 1    
    15    9   69 1    
    16   10   70 1    
    17   11   71 1    
    18   12   19 1    
    19   13   14 2    
    20   13   18 1    
    21   14   15 1    
    22   14   26 1    
    23   15   16 2    
    24   15   27 1    
    25   16   17 1    
    26   16   28 1    
    27   17   18 2    
    28   17   72 1    
    29   18   29 1    
    30   19   20 1    
    31   19   73 1    
    32   19   74 1    
    33   20   21 1    
    34   20   25 1    
    35   20   75 1    
    36   21   22 1    
    37   21   30 1    
    38   21   76 1    
    39   22   23 1    
    40   22   32 1    
    41   22   77 1    
    42   23   24 1    
    43   23   33 1    
    44   23   78 1    
    45   24   25 1    
    46   24   34 1    
    47   24   79 1    
    48   26   80 1    
    49   27   81 1    
    50   28   82 1    
    51   29   30 1    
    52   29   31 2    
    53   32   66 1    
    54   33   38 1    
    55   34   35 1    
    56   35   36 1    
    57   35   37 2    
    58   36   41 1    
    59   36   45 2    
    60   38   39 1    
    61   38   40 2    
    62   39   49 1    
    63   39   53 2    
    64   41   42 2    
    65   41   83 1    
    66   42   43 1    
    67   42   48 1    
    68   43   44 2    
    69   43   47 1    
    70   44   45 1    
    71   44   46 1    
    72   45   84 1    
    73   46   85 1    
    74   47   86 1    
    75   48   87 1    
    76   49   50 2    
    77   49   57 1    
    78   50   51 1    
    79   50   56 1    
    80   51   52 2    
    81   51   55 1    
    82   52   53 1    
    83   52   54 1    
    84   53   88 1    
    85   54   89 1    
    86   55   90 1    
    87   56   91 1    
    88   57   58 1    
    89   57   62 2    
    90   58   59 2    
    91   58   66 1    
    92   59   60 1    
    93   59   92 1    
    94   60   61 2    
    95   60   65 1    
    96   61   62 1    
    97   61   64 1    
    98   62   63 1    
    99   63   93 1    
   100   64   94 1    
   101   65   95 1    
   102   66   67 2    
@<TRIPOS>SUBSTRUCTURE
     1 ****        1 TEMP              0 ****  ****    0 ROOT 
@<TRIPOS>NORMAL
@<TRIPOS>FF_PBC
FORCE_FIELD_SETUP_FEATURE Force Field Setup information
v1.0  0 0.000000 0.000000 0.000000 0.000000 0.000000 0.000000 NONE 0 0 0 0 1 0 0 0 0 0 0 0 0
