@<TRIPOS>MOLECULE
MOL004996
   60    59     1     1     0
SMALL
GASTEIGER


@<TRIPOS>ATOM
      1 C          -5.088823    9.629985   -0.000389 C.3       1 <1>         0.033006 
      2 C          -3.763874    8.818996    0.000246 C.3       1 <1>        -0.044061 
      3 C          -4.033057    7.288961   -0.000062 C.3       1 <1>        -0.052596 
      4 C          -2.705706    6.481958    0.000223 C.3       1 <1>        -0.053036 
      5 C          -2.970958    4.951383   -0.000039 C.3       1 <1>        -0.052779 
      6 C          -1.641055    4.148667    0.000094 C.3       1 <1>        -0.049616 
      7 C          -1.898275    2.617505   -0.000175 C.3       1 <1>        -0.034761 
      8 C          -0.609272    1.830049   -0.000172 C.2       1 <1>        -0.087932 
      9 C          -0.599370    0.491068   -0.000170 C.2       1 <1>        -0.087932 
     10 C           0.692594   -0.291186   -0.000198 C.3       1 <1>        -0.034761 
     11 C           0.446820   -1.823947    0.000055 C.3       1 <1>        -0.049616 
     12 C           1.784642   -2.613439   -0.000083 C.3       1 <1>        -0.052779 
     13 C           1.535343   -4.146610    0.000139 C.3       1 <1>        -0.053048 
     14 C           2.871525   -4.938896   -0.000058 C.3       1 <1>        -0.053057 
     15 C           2.618506   -6.471382    0.000165 C.3       1 <1>        -0.053057 
     16 C           3.951271   -7.269226   -0.000058 C.3       1 <1>        -0.053065 
     17 C           3.689107   -8.800362    0.000165 C.3       1 <1>        -0.053306 
     18 C           5.017470   -9.604864   -0.000092 C.3       1 <1>        -0.055911 
     19 C           4.748908  -11.132504    0.000099 C.3       1 <1>        -0.065276 
     20 C          -4.881453   11.123792    0.000371 C.2       1 <1>         0.259588 
     21 O          -5.831546   11.891162    0.002368 O.2       1 <1>        -0.265177 
     22 O          -3.618516   11.556349   -0.001294 O.3       1 <1>        -0.331267 
     23 H          -5.679137    9.373064   -0.893807 H         1 <1>         0.036600 
     24 H          -5.680267    9.372360    0.892075 H         1 <1>         0.036600 
     25 H          -3.177105    9.086633    0.894712 H         1 <1>         0.027004 
     26 H          -3.176221    9.086766   -0.893612 H         1 <1>         0.027004 
     27 H          -4.621162    7.022392   -0.893782 H         1 <1>         0.026540 
     28 H          -4.621679    7.022148    0.893226 H         1 <1>         0.026540 
     29 H          -2.117522    6.749247    0.893672 H         1 <1>         0.026529 
     30 H          -2.117074    6.749435   -0.892875 H         1 <1>         0.026529 
     31 H          -3.558593    4.683177   -0.893407 H         1 <1>         0.026538 
     32 H          -3.558893    4.682951    0.893048 H         1 <1>         0.026538 
     33 H          -1.053166    4.414582    0.894316 H         1 <1>         0.026822 
     34 H          -1.052890    4.414827   -0.893880 H         1 <1>         0.026822 
     35 H          -2.480700    2.342508   -0.894356 H         1 <1>         0.030732 
     36 H          -2.480921    2.342238    0.893772 H         1 <1>         0.030732 
     37 H           0.343458    2.361950   -0.000182 H         1 <1>         0.056896 
     38 H          -1.550824   -0.042978   -0.000159 H         1 <1>         0.056896 
     39 H           1.273090   -0.012097   -0.894264 H         1 <1>         0.030732 
     40 H           1.273328   -0.011843    0.893627 H         1 <1>         0.030732 
     41 H          -0.138623   -2.095324    0.894256 H         1 <1>         0.026822 
     42 H          -0.138897   -2.095559   -0.893894 H         1 <1>         0.026822 
     43 H           2.369550   -2.339382   -0.893519 H         1 <1>         0.026538 
     44 H           2.369835   -2.339175    0.893122 H         1 <1>         0.026538 
     45 H           0.949992   -4.419998    0.893533 H         1 <1>         0.026529 
     46 H           0.949659   -4.420184   -0.892930 H         1 <1>         0.026529 
     47 H           3.456914   -4.666321   -0.893600 H         1 <1>         0.026528 
     48 H           3.457271   -4.666141    0.893234 H         1 <1>         0.026528 
     49 H           2.032473   -6.742720    0.893664 H         1 <1>         0.026528 
     50 H           2.032088   -6.742884   -0.893011 H         1 <1>         0.026528 
     51 H           4.538211   -6.999682   -0.893561 H         1 <1>         0.026528 
     52 H           4.538606   -6.999517    0.893103 H         1 <1>         0.026528 
     53 H           3.101990   -9.069651    0.893655 H         1 <1>         0.026520 
     54 H           3.101552   -9.069817   -0.893045 H         1 <1>         0.026520 
     55 H           5.608201   -9.342718   -0.893843 H         1 <1>         0.026265 
     56 H           5.608629   -9.342551    0.893264 H         1 <1>         0.026265 
     57 H           5.701889  -11.685047   -0.000065 H         1 <1>         0.022978 
     58 H           4.176526  -11.422091    0.895226 H         1 <1>         0.022978 
     59 H           4.176048  -11.422253   -0.894709 H         1 <1>         0.022978 
     60 H          -3.570014   12.506198   -0.000638 H         1 <1>         0.220208 
@<TRIPOS>BOND
     1    1    2 1    
     2    1   20 1    
     3    1   23 1    
     4    1   24 1    
     5    2    3 1    
     6    2   25 1    
     7    2   26 1    
     8    3    4 1    
     9    3   27 1    
    10    3   28 1    
    11    4    5 1    
    12    4   29 1    
    13    4   30 1    
    14    5    6 1    
    15    5   31 1    
    16    5   32 1    
    17    6    7 1    
    18    6   33 1    
    19    6   34 1    
    20    7    8 1    
    21    7   35 1    
    22    7   36 1    
    23    8    9 2    
    24    8   37 1    
    25    9   10 1    
    26    9   38 1    
    27   10   11 1    
    28   10   39 1    
    29   10   40 1    
    30   11   12 1    
    31   11   41 1    
    32   11   42 1    
    33   12   13 1    
    34   12   43 1    
    35   12   44 1    
    36   13   14 1    
    37   13   45 1    
    38   13   46 1    
    39   14   15 1    
    40   14   47 1    
    41   14   48 1    
    42   15   16 1    
    43   15   49 1    
    44   15   50 1    
    45   16   17 1    
    46   16   51 1    
    47   16   52 1    
    48   17   18 1    
    49   17   53 1    
    50   17   54 1    
    51   18   19 1    
    52   18   55 1    
    53   18   56 1    
    54   19   57 1    
    55   19   58 1    
    56   19   59 1    
    57   20   21 2    
    58   20   22 1    
    59   22   60 1    
@<TRIPOS>SUBSTRUCTURE
     1 ****        1 TEMP              0 ****  ****    0 ROOT 
@<TRIPOS>NORMAL
@<TRIPOS>FF_PBC
FORCE_FIELD_SETUP_FEATURE Force Field Setup information
v1.0  0 0.000000 0.000000 0.000000 0.000000 0.000000 0.000000 NONE 0 0 0 0 1 0 0 0 0 0 0 0 0
