@<TRIPOS>MOLECULE
MOL004059
   49    52     1     1     0
SMALL
GASTEIGER


@<TRIPOS>ATOM
      1 O           3.190192    0.478455    0.622459 O.3       1 <1>        -0.340521 
      2 O           1.319402    0.438530   -0.766521 O.3       1 <1>        -0.342067 
      3 O           5.392051   -1.914617   -2.052312 O.3       1 <1>        -0.386401 
      4 O           6.715426   -0.664055    0.178444 O.3       1 <1>        -0.386488 
      5 O           2.976131   -0.581560   -2.930381 O.3       1 <1>        -0.384104 
      6 O           4.493756   -0.616513    2.953716 O.3       1 <1>        -0.392366 
      7 O          -1.270709    0.060233    0.199162 O.3       1 <1>        -0.310029 
      8 O          -4.933777   -3.286757    0.492943 O.2       1 <1>        -0.212229 
      9 O          -6.011380    1.207202   -0.667930 O.3       1 <1>        -0.346216 
     10 O          -3.840205    2.961016   -0.873409 O.2       1 <1>        -0.287027 
     11 C           4.866032   -0.752658   -1.380275 C.3       1 <1>         0.114061 
     12 C           5.276174   -0.707455    0.115680 C.3       1 <1>         0.111896 
     13 C           3.323825   -0.692681   -1.535248 C.3       1 <1>         0.134124 
     14 C           4.622350    0.536470    0.779156 C.3       1 <1>         0.113005 
     15 C           2.758131    0.517134   -0.751608 C.3       1 <1>         0.188359 
     16 C           4.897988    0.601963    2.305292 C.3       1 <1>         0.073015 
     17 C           0.677168    1.448592    0.038204 C.3       1 <1>         0.097582 
     18 C          -0.819027    1.293250   -0.093924 C.2       1 <1>         0.089717 
     19 C          -3.587819    0.663531   -0.261719 C.ar      1 <1>         0.083204 
     20 C          -2.619004   -0.292651    0.101989 C.ar      1 <1>         0.104970 
     21 C          -1.642870    2.281999   -0.465633 C.2       1 <1>         0.014475 
     22 C          -3.087868    2.053441   -0.561308 C.2       1 <1>         0.193284 
     23 C          -5.022408    0.285536   -0.343229 C.ar      1 <1>         0.105489 
     24 C          -5.352432   -1.049109   -0.082797 C.ar      1 <1>         0.117731 
     25 C          -4.353461   -2.055667    0.284687 C.ar      1 <1>         0.367819 
     26 C          -3.010408   -1.698535    0.385342 C.ar      1 <1>         0.074360 
     27 C          -6.620966   -1.782431   -0.086758 C.ar      1 <1>         0.053228 
     28 C          -6.283993   -3.077058    0.256737 C.ar      1 <1>         0.322710 
     29 C          -6.490165    1.984840    0.443131 C.3       1 <1>         0.043084 
     30 H           5.300209    0.125015   -1.886415 H         1 <1>         0.064758 
     31 H           4.896844   -1.624141    0.598694 H         1 <1>         0.064673 
     32 H           2.874558   -1.600703   -1.097790 H         1 <1>         0.067095 
     33 H           5.025576    1.455709    0.319859 H         1 <1>         0.064668 
     34 H           3.078940    1.447521   -1.250927 H         1 <1>         0.093752 
     35 H           4.350823    1.457968    2.736616 H         1 <1>         0.058370 
     36 H           5.968553    0.763527    2.504009 H         1 <1>         0.058370 
     37 H           5.108244   -2.738331   -1.669270 H         1 <1>         0.210005 
     38 H           7.068288   -0.767555    1.056648 H         1 <1>         0.210004 
     39 H           3.316142   -1.309255   -3.443264 H         1 <1>         0.210110 
     40 H           0.923151    1.312891    1.102708 H         1 <1>         0.063107 
     41 H           0.998466    2.455123   -0.274322 H         1 <1>         0.063107 
     42 H           3.563837   -0.790504    2.835368 H         1 <1>         0.209508 
     43 H          -1.262840    3.275284   -0.703064 H         1 <1>         0.067943 
     44 H          -2.262255   -2.431412    0.662628 H         1 <1>         0.073822 
     45 H          -7.606514   -1.388014   -0.313222 H         1 <1>         0.071423 
     46 H          -7.019199   -3.873802    0.337456 H         1 <1>         0.176011 
     47 H          -5.679613    2.560969    0.915503 H         1 <1>         0.052870 
     48 H          -6.959539    1.336933    1.199380 H         1 <1>         0.052870 
     49 H          -7.244905    2.690333    0.066015 H         1 <1>         0.052870 
@<TRIPOS>BOND
     1    1   14 1    
     2   15    1 1    
     3    2   15 1    
     4   17    2 1    
     5   11    3 1    
     6    3   37 1    
     7   12    4 1    
     8    4   38 1    
     9   13    5 1    
    10    5   39 1    
    11   16    6 1    
    12    6   42 1    
    13    7   18 1    
    14   20    7 1    
    15   25    8 1    
    16    8   28 1    
    17   23    9 1    
    18    9   29 1    
    19   22   10 2    
    20   11   12 1    
    21   13   11 1    
    22   11   30 1    
    23   14   12 1    
    24   12   31 1    
    25   15   13 1    
    26   13   32 1    
    27   14   16 1    
    28   14   33 1    
    29   15   34 1    
    30   16   35 1    
    31   16   36 1    
    32   18   17 1    
    33   17   40 1    
    34   17   41 1    
    35   21   18 2    
    36   19   20 2    
    37   19   22 1    
    38   23   19 1    
    39   20   26 1    
    40   22   21 1    
    41   21   43 1    
    42   24   23 2    
    43   24   25 1    
    44   24   27 1    
    45   25   26 2    
    46   26   44 1    
    47   27   28 2    
    48   27   45 1    
    49   28   46 1    
    50   29   47 1    
    51   29   48 1    
    52   29   49 1    
@<TRIPOS>SUBSTRUCTURE
     1 ****        3 TEMP              0 ****  ****    0 ROOT 
@<TRIPOS>NORMAL
@<TRIPOS>FF_PBC
FORCE_FIELD_SETUP_FEATURE Force Field Setup information
v1.0  0 0.000000 0.000000 0.000000 0.000000 0.000000 0.000000 NONE 0 0 0 0 1 0 0 0 0 0 0 0 0
