@<TRIPOS>MOLECULE
MOL000878
   49    48     1     1     0
SMALL
GASTEIGER


@<TRIPOS>ATOM
      1 C           8.322379   -1.026477   -1.716870 C.3       1 <1>        -0.006054 
      2 C           7.396507   -0.104367   -0.966707 C.2       1 <1>         0.130612 
      3 C           6.005791   -0.604923   -0.657596 C.3       1 <1>         0.008973 
      4 C           5.219244    0.368558    0.261385 C.3       1 <1>        -0.027851 
      5 C           3.831638   -0.139791    0.583231 C.2       1 <1>        -0.084618 
      6 C           2.874767    0.593553    1.176765 C.2       1 <1>        -0.076230 
      7 C           1.496028    0.018891    1.453215 C.3       1 <1>        -0.028563 
      8 C           0.367769    0.841033    0.772227 C.3       1 <1>        -0.030839 
      9 C          -0.995538    0.224622    0.994056 C.2       1 <1>        -0.084718 
     10 C          -2.104377    0.567449    0.316484 C.2       1 <1>        -0.076231 
     11 C          -3.433996   -0.115580    0.582120 C.3       1 <1>        -0.028563 
     12 C          -3.983164   -0.821120   -0.685677 C.3       1 <1>        -0.030848 
     13 C          -5.250312   -1.576631   -0.351200 C.2       1 <1>        -0.084989 
     14 C          -6.501277   -1.087956   -0.406763 C.2       1 <1>        -0.079608 
     15 C          -7.692949   -1.963492   -0.079999 C.3       1 <1>        -0.044049 
     16 O           7.771762    1.001198   -0.611742 O.2       1 <1>        -0.297693 
     17 C          -6.843777    0.336942   -0.788299 C.3       1 <1>        -0.044049 
     18 C          -2.115791    1.646224   -0.746141 C.3       1 <1>        -0.043778 
     19 C           3.092942    2.027253    1.614144 C.3       1 <1>        -0.043778 
     20 H           7.792594   -1.513797   -2.548823 H         1 <1>         0.030578 
     21 H           9.175447   -0.463286   -2.124720 H         1 <1>         0.030578 
     22 H           8.702336   -1.798004   -1.030971 H         1 <1>         0.030578 
     23 H           6.090239   -1.586879   -0.164976 H         1 <1>         0.034442 
     24 H           5.458439   -0.732421   -1.605000 H         1 <1>         0.034442 
     25 H           5.147279    1.345457   -0.243938 H         1 <1>         0.031141 
     26 H           5.779891    0.490580    1.202175 H         1 <1>         0.031141 
     27 H           3.612312   -1.172228    0.309232 H         1 <1>         0.057165 
     28 H           1.336714    0.008229    2.543444 H         1 <1>         0.031285 
     29 H           1.414874   -1.021776    1.099707 H         1 <1>         0.031285 
     30 H           0.585818    0.896839   -0.306467 H         1 <1>         0.031044 
     31 H           0.347862    1.860121    1.188331 H         1 <1>         0.031044 
     32 H          -1.063702   -0.547297    1.761270 H         1 <1>         0.057163 
     33 H          -4.155085    0.638831    0.933169 H         1 <1>         0.031285 
     34 H          -3.347822   -0.873357    1.377567 H         1 <1>         0.031285 
     35 H          -3.225728   -1.535727   -1.048173 H         1 <1>         0.031044 
     36 H          -4.157786   -0.107101   -1.503631 H         1 <1>         0.031044 
     37 H          -5.104519   -2.611002   -0.035900 H         1 <1>         0.057155 
     38 H          -7.423872   -3.015673    0.097879 H         1 <1>         0.027427 
     39 H          -8.192041   -1.581666    0.823330 H         1 <1>         0.027427 
     40 H          -8.407240   -1.933920   -0.916714 H         1 <1>         0.027427 
     41 H          -7.630333    0.719860   -0.120624 H         1 <1>         0.027427 
     42 H          -7.226973    0.347903   -1.819492 H         1 <1>         0.027427 
     43 H          -5.999991    1.036092   -0.720604 H         1 <1>         0.027427 
     44 H          -1.986642    1.182597   -1.735322 H         1 <1>         0.027436 
     45 H          -1.321856    2.392989   -0.605295 H         1 <1>         0.027436 
     46 H          -3.073197    2.188706   -0.733487 H         1 <1>         0.027436 
     47 H           2.700853    2.705657    0.842057 H         1 <1>         0.027436 
     48 H           4.150799    2.271646    1.783701 H         1 <1>         0.027436 
     49 H           2.563681    2.223141    2.558840 H         1 <1>         0.027436 
@<TRIPOS>BOND
     1    1    2 1    
     2    1   20 1    
     3    1   21 1    
     4    1   22 1    
     5    2    3 1    
     6    2   16 2    
     7    3    4 1    
     8    3   23 1    
     9    3   24 1    
    10    4    5 1    
    11    4   25 1    
    12    4   26 1    
    13    5    6 2    
    14    5   27 1    
    15    6    7 1    
    16    6   19 1    
    17    7    8 1    
    18    7   28 1    
    19    7   29 1    
    20    8    9 1    
    21    8   30 1    
    22    8   31 1    
    23    9   10 2    
    24    9   32 1    
    25   10   11 1    
    26   10   18 1    
    27   11   12 1    
    28   11   33 1    
    29   11   34 1    
    30   12   13 1    
    31   12   35 1    
    32   12   36 1    
    33   13   14 2    
    34   13   37 1    
    35   14   15 1    
    36   14   17 1    
    37   15   38 1    
    38   15   39 1    
    39   15   40 1    
    40   17   41 1    
    41   17   42 1    
    42   17   43 1    
    43   18   44 1    
    44   18   45 1    
    45   18   46 1    
    46   19   47 1    
    47   19   48 1    
    48   19   49 1    
@<TRIPOS>SUBSTRUCTURE
     1 ****        1 TEMP              0 ****  ****    0 ROOT 
@<TRIPOS>NORMAL
@<TRIPOS>FF_PBC
FORCE_FIELD_SETUP_FEATURE Force Field Setup information
v1.0  0 0.000000 0.000000 0.000000 0.000000 0.000000 0.000000 NONE 0 0 0 0 1 0 0 0 0 0 0 0 0
