@<TRIPOS>MOLECULE
MOL008047
   47    48     1     1     0
SMALL
GASTEIGER


@<TRIPOS>ATOM
      1 O          -1.944736   -0.035029   -0.242523 O.3       1 <1>        -0.340263 
      2 C          -2.682176    0.784704    0.702541 C.3       1 <1>         0.073912 
      3 C          -2.025227    2.209463    0.719813 C.3       1 <1>         0.001991 
      4 C          -0.600627    1.856855    0.338432 C.ar      1 <1>        -0.014090 
      5 C          -0.669823    0.509356   -0.218245 C.ar      1 <1>         0.083292 
      6 C           0.457972   -0.148336   -0.684911 C.ar      1 <1>        -0.012837 
      7 C           1.748346    0.586209   -0.610325 C.ar      1 <1>        -0.048646 
      8 C           1.816495    1.912463   -0.063489 C.ar      1 <1>        -0.024168 
      9 C           0.580371    2.560193    0.447761 C.ar      1 <1>        -0.048860 
     10 C          -2.640444    0.076074    2.089310 C.3       1 <1>         0.006430 
     11 C          -3.050525   -1.417876    1.927285 C.3       1 <1>         0.049148 
     12 O          -4.403626   -1.490231    1.436051 O.3       1 <1>        -0.394657 
     13 C           0.377021   -1.570872   -1.258293 C.3       1 <1>        -0.006776 
     14 C           1.578295   -2.425435   -0.924707 C.2       1 <1>        -0.080898 
     15 C           1.948734   -3.513123   -1.621211 C.2       1 <1>        -0.079307 
     16 C           3.199782   -4.291461   -1.276602 C.3       1 <1>        -0.044040 
     17 C           3.153115    2.616164   -0.018639 C.2       1 <1>        -0.048924 
     18 C           3.334284    3.894440   -0.379971 C.2       1 <1>         0.010297 
     19 C           2.316357    4.807232   -0.941302 C.2       1 <1>         0.284026 
     20 O           2.505480    6.012491   -0.892856 O.2       1 <1>        -0.260082 
     21 C          -3.577920    0.744061    3.138955 C.3       1 <1>        -0.057939 
     22 C           1.163085   -4.050213   -2.795792 C.3       1 <1>        -0.044040 
     23 O           1.213109    4.316664   -1.514569 O.3       1 <1>        -0.327929 
     24 H          -3.732431    0.837961    0.381445 H         1 <1>         0.060769 
     25 H          -2.075906    2.755702    1.672337 H         1 <1>         0.033929 
     26 H          -2.436614    2.839530   -0.082949 H         1 <1>         0.033929 
     27 H           2.654147    0.123284   -0.981200 H         1 <1>         0.062704 
     28 H           0.592820    3.550756    0.886460 H         1 <1>         0.062696 
     29 H          -1.602301    0.107837    2.461922 H         1 <1>         0.034548 
     30 H          -2.986525   -1.929258    2.903659 H         1 <1>         0.056047 
     31 H          -2.364702   -1.931423    1.230936 H         1 <1>         0.056047 
     32 H          -4.706287   -2.383869    1.301852 H         1 <1>         0.209408 
     33 H          -0.514862   -2.080847   -0.864006 H         1 <1>         0.035640 
     34 H           0.265100   -1.445719   -2.347282 H         1 <1>         0.035640 
     35 H           2.176696   -2.130926   -0.061363 H         1 <1>         0.057472 
     36 H           3.813092   -3.813730   -0.497528 H         1 <1>         0.027427 
     37 H           3.818342   -4.393646   -2.181754 H         1 <1>         0.027427 
     38 H           2.916855   -5.295391   -0.924185 H         1 <1>         0.027427 
     39 H           4.005751    2.027665    0.325863 H         1 <1>         0.062525 
     40 H           4.332789    4.318670   -0.267984 H         1 <1>         0.067729 
     41 H          -3.572443    0.165311    4.076536 H         1 <1>         0.023393 
     42 H          -3.271047    1.770998    3.383857 H         1 <1>         0.023393 
     43 H          -4.613102    0.778218    2.767484 H         1 <1>         0.023393 
     44 H           0.099339   -3.771500   -2.771336 H         1 <1>         0.027427 
     45 H           1.203691   -5.150654   -2.802823 H         1 <1>         0.027427 
     46 H           1.611916   -3.673977   -3.727399 H         1 <1>         0.027427 
     47 H           0.639537    4.999963   -1.844743 H         1 <1>         0.220537 
@<TRIPOS>BOND
     1    1    2 1    
     2    1    5 1    
     3    2    3 1    
     4    2   10 1    
     5    2   24 1    
     6    3    4 1    
     7    3   25 1    
     8    3   26 1    
     9    4    5 1    
    10    4    9 2    
    11    5    6 2    
    12    6    7 1    
    13    6   13 1    
    14    7    8 2    
    15    7   27 1    
    16    8    9 1    
    17    8   17 1    
    18    9   28 1    
    19   10   11 1    
    20   10   21 1    
    21   10   29 1    
    22   11   12 1    
    23   11   30 1    
    24   11   31 1    
    25   12   32 1    
    26   13   14 1    
    27   13   33 1    
    28   13   34 1    
    29   14   15 2    
    30   14   35 1    
    31   15   16 1    
    32   15   22 1    
    33   16   36 1    
    34   16   37 1    
    35   16   38 1    
    36   17   18 2    
    37   17   39 1    
    38   18   19 1    
    39   18   40 1    
    40   19   20 2    
    41   19   23 1    
    42   21   41 1    
    43   21   42 1    
    44   21   43 1    
    45   22   44 1    
    46   22   45 1    
    47   22   46 1    
    48   23   47 1    
@<TRIPOS>SUBSTRUCTURE
     1 ****        1 TEMP              0 ****  ****    0 ROOT 
@<TRIPOS>NORMAL
@<TRIPOS>FF_PBC
FORCE_FIELD_SETUP_FEATURE Force Field Setup information
v1.0  0 0.000000 0.000000 0.000000 0.000000 0.000000 0.000000 NONE 0 0 0 0 1 0 0 0 0 0 0 0 0
