@<TRIPOS>MOLECULE
MOL004822
   44    45     1     1     0
SMALL
GASTEIGER


@<TRIPOS>ATOM
      1 O          -5.390728    1.307622    0.027987 O.3       1 <1>        -0.359551 
      2 O           3.661492    0.937112    2.246051 O.3       1 <1>        -0.359040 
      3 O           3.023963    3.327493   -0.255459 O.2       1 <1>        -0.287193 
      4 O           6.784268   -1.957098   -0.235151 O.3       1 <1>        -0.359749 
      5 C          -3.123029    0.696727   -0.530898 C.ar      1 <1>        -0.013379 
      6 C          -3.604848   -0.666660   -1.043341 C.3       1 <1>        -0.006793 
      7 C          -1.675732    1.023829   -0.580176 C.ar      1 <1>        -0.048672 
      8 C          -1.197663    2.257520   -0.108101 C.ar      1 <1>        -0.024492 
      9 C          -4.030490    1.625290   -0.019728 C.ar      1 <1>         0.076071 
     10 C          -3.584252   -1.632035    0.118255 C.2       1 <1>        -0.080898 
     11 C          -2.171541    3.240180    0.426614 C.ar      1 <1>        -0.052144 
     12 C          -3.537059    2.937949    0.468595 C.ar      1 <1>        -0.031105 
     13 C          -2.797805   -2.715282    0.228336 C.2       1 <1>        -0.079307 
     14 C           0.269241    2.638149   -0.128803 C.2       1 <1>        -0.050947 
     15 C           1.278524    1.756587   -0.147936 C.2       1 <1>        -0.013708 
     16 C           3.771482    1.089500   -0.178071 C.ar      1 <1>         0.051478 
     17 C          -2.868451   -3.619580    1.439749 C.3       1 <1>        -0.044040 
     18 C          -1.795132   -3.113590   -0.832115 C.3       1 <1>        -0.044040 
     19 C           2.698522    2.152910   -0.197144 C.2       1 <1>         0.188543 
     20 C           4.199645    0.529470    1.022692 C.ar      1 <1>         0.085798 
     21 C           4.362094    0.640203   -1.461562 C.ar      1 <1>        -0.046025 
     22 C           5.241153   -0.524802    1.010792 C.ar      1 <1>        -0.001470 
     23 C           5.343419   -0.356951   -1.471551 C.ar      1 <1>        -0.031105 
     24 C           5.802957   -0.962557   -0.200598 C.ar      1 <1>         0.075057 
     25 H          -4.634998   -0.592538   -1.425658 H         1 <1>         0.035640 
     26 H          -2.974684   -0.977012   -1.888384 H         1 <1>         0.035640 
     27 H          -0.995997    0.291500   -0.995447 H         1 <1>         0.062704 
     28 H          -4.283693   -1.394758    0.921481 H         1 <1>         0.057472 
     29 H          -1.822992    4.201784    0.789444 H         1 <1>         0.062423 
     30 H          -4.233825    3.670586    0.861640 H         1 <1>         0.064347 
     31 H           0.505018    3.702959   -0.121883 H         1 <1>         0.062459 
     32 H           1.096433    0.684530   -0.123209 H         1 <1>         0.065602 
     33 H          -3.618183   -3.294792    2.177080 H         1 <1>         0.027427 
     34 H          -3.126755   -4.639681    1.117407 H         1 <1>         0.027427 
     35 H          -1.887807   -3.642290    1.938429 H         1 <1>         0.027427 
     36 H          -1.084227   -2.293080   -1.008138 H         1 <1>         0.027427 
     37 H          -1.214150   -3.999878   -0.533502 H         1 <1>         0.027427 
     38 H          -2.317962   -3.352776   -1.770424 H         1 <1>         0.027427 
     39 H           4.029354    1.085323   -2.393729 H         1 <1>         0.062620 
     40 H          -5.928956    1.986821    0.416961 H         1 <1>         0.217325 
     41 H           5.559299   -0.951195    1.955017 H         1 <1>         0.066921 
     42 H           5.775315   -0.693808   -2.408221 H         1 <1>         0.064341 
     43 H           3.429897    1.859368    2.272791 H         1 <1>         0.217341 
     44 H           7.069182   -2.262948    0.618909 H         1 <1>         0.217315 
@<TRIPOS>BOND
     1    9    1 1    
     2    1   40 1    
     3   20    2 1    
     4    2   43 1    
     5   19    3 2    
     6   24    4 1    
     7    4   44 1    
     8    5    6 1    
     9    7    5 1    
    10    5    9 2    
    11    6   10 1    
    12    6   25 1    
    13    6   26 1    
    14    8    7 2    
    15    7   27 1    
    16    8   11 1    
    17   14    8 1    
    18   12    9 1    
    19   10   13 2    
    20   10   28 1    
    21   11   12 2    
    22   11   29 1    
    23   12   30 1    
    24   13   17 1    
    25   13   18 1    
    26   15   14 2    
    27   14   31 1    
    28   19   15 1    
    29   15   32 1    
    30   16   19 1    
    31   20   16 2    
    32   16   21 1    
    33   17   33 1    
    34   17   34 1    
    35   17   35 1    
    36   18   36 1    
    37   18   37 1    
    38   18   38 1    
    39   22   20 1    
    40   21   23 2    
    41   21   39 1    
    42   22   24 2    
    43   22   41 1    
    44   23   24 1    
    45   23   42 1    
@<TRIPOS>SUBSTRUCTURE
     1 ****        5 TEMP              0 ****  ****    0 ROOT 
@<TRIPOS>NORMAL
@<TRIPOS>FF_PBC
FORCE_FIELD_SETUP_FEATURE Force Field Setup information
v1.0  0 0.000000 0.000000 0.000000 0.000000 0.000000 0.000000 NONE 0 0 0 0 1 0 0 0 0 0 0 0 0
