@<TRIPOS>MOLECULE
MOL012972
   89    93     1     1     0
SMALL
GASTEIGER


@<TRIPOS>ATOM
      1 C           8.178404   -2.764252   11.141821 C.ar      1 <1>         0.072617 
      2 C           7.056674   -3.729797   11.131747 C.ar      1 <1>        -0.031383 
      3 C           6.106967   -3.713546   10.097654 C.ar      1 <1>        -0.052160 
      4 C           6.208012   -2.729706    8.990576 C.ar      1 <1>        -0.024693 
      5 C           7.282356   -1.795326    9.004035 C.ar      1 <1>        -0.052160 
      6 C           8.279675   -1.812017   10.099786 C.ar      1 <1>        -0.031383 
      7 O           9.110708   -2.813175   12.181479 O.3       1 <1>        -0.359832 
      8 C           5.173402   -2.781943    7.885659 C.2       1 <1>        -0.048935 
      9 C           4.872152   -1.766156    7.061499 C.2       1 <1>         0.010492 
     10 C           3.899697   -1.887281    5.957502 C.2       1 <1>         0.286679 
     11 O           3.647126   -0.820063    5.180530 O.3       1 <1>        -0.309194 
     12 O           3.352494   -2.961417    5.758505 O.2       1 <1>        -0.259878 
     13 C           2.849931   -1.118522    4.013200 C.3       1 <1>         0.086153 
     14 C           2.638516    0.151528    3.146666 C.3       1 <1>         0.113861 
     15 C           1.501896    1.055230    3.696522 C.3       1 <1>         0.111922 
     16 C           1.215354    2.216803    2.708252 C.3       1 <1>         0.114062 
     17 C           0.956889    1.657631    1.283386 C.3       1 <1>         0.134113 
     18 C           2.170525    0.791279    0.867983 C.3       1 <1>         0.188012 
     19 O           2.322782   -0.287481    1.810220 O.3       1 <1>        -0.340505 
     20 O           0.074700    2.955462    3.184467 O.3       1 <1>        -0.386401 
     21 O           1.887230    1.570296    4.984205 O.3       1 <1>        -0.386488 
     22 O           0.762960    2.755677    0.370111 O.3       1 <1>        -0.384104 
     23 O           1.963183    0.198723   -0.432083 O.3       1 <1>        -0.346049 
     24 C           3.103488   -0.585678   -0.857517 C.3       1 <1>         0.079556 
     25 C           2.848934   -1.312076   -2.204429 C.3       1 <1>         0.113366 
     26 C           3.994151   -2.330726   -2.463834 C.3       1 <1>         0.111906 
     27 C           3.865175   -2.969189   -3.868427 C.3       1 <1>         0.114063 
     28 C           3.735019   -1.858822   -4.938297 C.3       1 <1>         0.134212 
     29 C           2.553053   -0.930317   -4.565352 C.3       1 <1>         0.190802 
     30 O           2.770514   -0.338685   -3.269270 O.3       1 <1>        -0.340421 
     31 O           5.032539   -3.779824   -4.107371 O.3       1 <1>        -0.386401 
     32 O           2.547121    0.153806   -5.516127 O.3       1 <1>        -0.319115 
     33 C           1.295062    0.359409   -6.202160 C.3       1 <1>         0.174328 
     34 O           1.577143    1.350502   -7.194740 O.3       1 <1>        -0.321655 
     35 C           1.765745    2.595090   -6.728567 C.2       1 <1>         0.052281 
     36 C           1.376941    3.000546   -5.507609 C.2       1 <1>         0.050785 
     37 C           0.651550    2.100898   -4.523701 C.3       1 <1>         0.006330 
     38 C           0.163854    0.839769   -5.269731 C.3       1 <1>         0.041105 
     39 C          -1.064457    1.415667   -5.917728 C.2       1 <1>        -0.039915 
     40 C          -1.531002    2.479741   -5.260611 C.2       1 <1>        -0.081574 
     41 C          -0.663684    2.793750   -4.074240 C.3       1 <1>        -0.026630 
     42 C           1.635061    4.432090   -5.217199 C.2       1 <1>         0.291730 
     43 O           1.063939    5.269841   -5.895166 O.2       1 <1>        -0.259507 
     44 O           2.487395    4.866455   -4.272855 O.3       1 <1>        -0.314939 
     45 C           3.107513    3.883508   -3.427642 C.3       1 <1>         0.046187 
     46 C          -1.632357    0.785826   -7.163289 C.3       1 <1>         0.065735 
     47 O          -2.863063    1.440987   -7.518813 O.3       1 <1>        -0.390724 
     48 H           1.294481    1.805267   -3.684437 H         1 <1>         0.036163 
     49 H          -0.155607    0.051913   -4.567888 H         1 <1>         0.040171 
     50 O           3.945945   -3.359080   -1.456139 O.3       1 <1>        -0.386488 
     51 O           3.519727   -2.479956   -6.220634 O.3       1 <1>        -0.384103 
     52 H           6.977275   -4.453153   11.935984 H         1 <1>         0.064338 
     53 H           5.290988   -4.429335   10.112750 H         1 <1>         0.062423 
     54 H           7.400558   -1.065453    8.213398 H         1 <1>         0.062423 
     55 H           9.087319   -1.088439   10.088172 H         1 <1>         0.064338 
     56 H           9.846824   -2.222012   12.073311 H         1 <1>         0.217313 
     57 H           4.648268   -3.728734    7.764057 H         1 <1>         0.062525 
     58 H           5.342381   -0.791349    7.163708 H         1 <1>         0.067735 
     59 H           3.405812   -1.846138    3.396113 H         1 <1>         0.059271 
     60 H           1.872759   -1.556733    4.275340 H         1 <1>         0.059271 
     61 H           3.591077    0.707804    3.140040 H         1 <1>         0.064694 
     62 H           0.579389    0.455044    3.784174 H         1 <1>         0.064673 
     63 H           2.098629    2.879431    2.688746 H         1 <1>         0.064758 
     64 H           0.055855    1.020819    1.305895 H         1 <1>         0.067095 
     65 H           3.062400    1.439808    0.827388 H         1 <1>         0.093741 
     66 H          -0.145204    3.679420    2.604427 H         1 <1>         0.210005 
     67 H           1.219510    2.140815    5.354361 H         1 <1>         0.210004 
     68 H           0.607221    2.449638   -0.519313 H         1 <1>         0.210110 
     69 H           3.986502    0.062927   -0.978542 H         1 <1>         0.058744 
     70 H           3.332536   -1.352323   -0.100622 H         1 <1>         0.058744 
     71 H           1.893769   -1.855146   -2.113420 H         1 <1>         0.064677 
     72 H           4.960141   -1.797443   -2.415046 H         1 <1>         0.064673 
     73 H           2.963562   -3.604837   -3.886053 H         1 <1>         0.064758 
     74 H           4.666910   -1.268013   -4.950475 H         1 <1>         0.067096 
     75 H           1.631471   -1.537584   -4.575884 H         1 <1>         0.093840 
     76 H           5.016636   -4.182323   -4.971668 H         1 <1>         0.210005 
     77 H           0.996704   -0.552256   -6.744945 H         1 <1>         0.092073 
     78 H           2.240790    3.288940   -7.422649 H         1 <1>         0.089058 
     79 H          -2.419354    3.046155   -5.540911 H         1 <1>         0.057263 
     80 H          -0.556914    3.874433   -3.893577 H         1 <1>         0.031347 
     81 H          -1.083079    2.314088   -3.175339 H         1 <1>         0.031347 
     82 H           3.913221    4.415055   -2.899909 H         1 <1>         0.052972 
     83 H           2.397370    3.526039   -2.667159 H         1 <1>         0.052972 
     84 H           3.556970    3.041682   -3.979921 H         1 <1>         0.052972 
     85 H          -1.814642   -0.284608   -6.972493 H         1 <1>         0.060399 
     86 H          -0.898425    0.892233   -7.979269 H         1 <1>         0.060399 
     87 H          -3.258847    1.087723   -8.309657 H         1 <1>         0.209834 
     88 H           4.621059   -4.020411   -1.583328 H         1 <1>         0.210004 
     89 H           3.447246   -1.839032   -6.922532 H         1 <1>         0.210110 
@<TRIPOS>BOND
     1    1    2 1    
     2    1    6 2    
     3    1    7 1    
     4    2    3 2    
     5    2   52 1    
     6    3    4 1    
     7    3   53 1    
     8    4    5 2    
     9    4    8 1    
    10    5    6 1    
    11    5   54 1    
    12    6   55 1    
    13    7   56 1    
    14    8    9 2    
    15    8   57 1    
    16    9   10 1    
    17    9   58 1    
    18   10   11 1    
    19   10   12 2    
    20   11   13 1    
    21   13   14 1    
    22   13   59 1    
    23   13   60 1    
    24   14   15 1    
    25   14   19 1    
    26   14   61 1    
    27   15   16 1    
    28   15   21 1    
    29   15   62 1    
    30   16   17 1    
    31   16   20 1    
    32   16   63 1    
    33   17   18 1    
    34   17   22 1    
    35   17   64 1    
    36   18   19 1    
    37   18   23 1    
    38   18   65 1    
    39   20   66 1    
    40   21   67 1    
    41   22   68 1    
    42   23   24 1    
    43   24   25 1    
    44   24   69 1    
    45   24   70 1    
    46   25   26 1    
    47   25   30 1    
    48   25   71 1    
    49   26   27 1    
    50   26   50 1    
    51   26   72 1    
    52   27   28 1    
    53   27   31 1    
    54   27   73 1    
    55   28   29 1    
    56   28   51 1    
    57   28   74 1    
    58   29   30 1    
    59   29   32 1    
    60   29   75 1    
    61   31   76 1    
    62   32   33 1    
    63   33   34 1    
    64   33   38 1    
    65   33   77 1    
    66   34   35 1    
    67   35   36 2    
    68   35   78 1    
    69   36   37 1    
    70   36   42 1    
    71   37   38 1    
    72   37   41 1    
    73   37   48 1    
    74   38   39 1    
    75   38   49 1    
    76   39   40 2    
    77   39   46 1    
    78   40   41 1    
    79   40   79 1    
    80   41   80 1    
    81   41   81 1    
    82   42   43 2    
    83   42   44 1    
    84   44   45 1    
    85   45   82 1    
    86   45   83 1    
    87   45   84 1    
    88   46   47 1    
    89   46   85 1    
    90   46   86 1    
    91   47   87 1    
    92   50   88 1    
    93   51   89 1    
@<TRIPOS>SUBSTRUCTURE
     1 ****        1 TEMP              0 ****  ****    0 ROOT 
@<TRIPOS>NORMAL
@<TRIPOS>FF_PBC
FORCE_FIELD_SETUP_FEATURE Force Field Setup information
v1.0  0 0.000000 0.000000 0.000000 0.000000 0.000000 0.000000 NONE 0 0 0 0 1 0 0 0 0 0 0 0 0
