@<TRIPOS>MOLECULE
MOL002245
   65    69     1     1     0
SMALL
GASTEIGER


@<TRIPOS>ATOM
      1 C          -2.840448    2.568006   -0.693714 C.ar      1 <1>        -0.058608 
      2 C          -2.508928    1.443434    0.211448 C.ar      1 <1>        -0.030827 
      3 C          -1.433407    1.547641    1.125024 C.ar      1 <1>         0.090952 
      4 C          -0.635982    2.800886    1.193228 C.ar      1 <1>         0.063177 
      5 C          -0.910509    3.844148    0.260781 C.ar      1 <1>         0.035569 
      6 C          -2.057914    3.729595   -0.673481 C.ar      1 <1>        -0.050071 
      7 C           0.462335    3.003987    2.216018 C.2       1 <1>         0.199447 
      8 C           1.578186    3.975312    1.910643 C.ar      1 <1>         0.062824 
      9 C           1.322007    5.033345    0.907592 C.ar      1 <1>         0.035808 
     10 C          -0.024699    5.068609    0.219538 C.2       1 <1>         0.194675 
     11 C           2.833162    3.888106    2.545591 C.ar      1 <1>         0.084321 
     12 C           3.892391    4.874954    2.213209 C.ar      1 <1>        -0.028282 
     13 C           3.651348    5.890210    1.261540 C.ar      1 <1>        -0.047307 
     14 C           2.324266    5.969194    0.602825 C.ar      1 <1>        -0.047151 
     15 O          -1.132332    0.461958    1.944086 O.3       1 <1>        -0.311822 
     16 O           0.446707    2.392084    3.273460 O.2       1 <1>        -0.286435 
     17 O          -0.382838    6.063299   -0.390014 O.2       1 <1>        -0.286609 
     18 C           0.162959   -0.133349    1.759008 C.3       1 <1>         0.193670 
     19 O           0.277075   -0.815697    0.492935 O.3       1 <1>        -0.340141 
     20 C           1.612837   -1.335448    0.288444 C.3       1 <1>         0.113873 
     21 C           1.947076   -2.380430    1.389071 C.3       1 <1>         0.111923 
     22 C           1.803749   -1.751050    2.801482 C.3       1 <1>         0.114074 
     23 C           0.404482   -1.096640    2.943459 C.3       1 <1>         0.134509 
     24 C           1.773475   -1.947327   -1.128108 C.3       1 <1>         0.086172 
     25 O           1.962590   -2.790529    3.786689 O.3       1 <1>        -0.386401 
     26 O           3.280643   -2.884164    1.185668 O.3       1 <1>        -0.386488 
     27 O           0.257952   -0.434094    4.218427 O.3       1 <1>        -0.384091 
     28 C           4.749515    6.896297    0.902256 C.3       1 <1>        -0.039609 
     29 O           3.072196    2.869059    3.472001 O.3       1 <1>        -0.359094 
     30 O           3.173635   -1.839708   -1.474977 O.3       1 <1>        -0.308753 
     31 C           3.542544   -2.391180   -2.637680 C.2       1 <1>         0.294052 
     32 C           2.941759   -3.652727   -3.217722 C.ar      1 <1>         0.051495 
     33 O           4.444231   -1.851865   -3.256432 O.2       1 <1>        -0.259223 
     34 C           2.670458   -4.820065   -2.343929 C.ar      1 <1>        -0.016369 
     35 C           2.115780   -5.991081   -2.873313 C.ar      1 <1>         0.105520 
     36 C           1.817249   -6.077522   -4.326234 C.ar      1 <1>         0.132457 
     37 C           2.086779   -4.971335   -5.171928 C.ar      1 <1>         0.105520 
     38 C           2.662062   -3.729521   -4.595783 C.ar      1 <1>        -0.016369 
     39 O           1.802773   -5.075954   -6.537397 O.3       1 <1>        -0.357199 
     40 O           1.276174   -7.257083   -4.842784 O.3       1 <1>        -0.355395 
     41 O           1.851656   -7.069648   -2.029929 O.3       1 <1>        -0.357199 
     42 H          -3.684002    2.487484   -1.372136 H         1 <1>         0.061857 
     43 H          -3.089067    0.528835    0.170856 H         1 <1>         0.064350 
     44 H          -2.292601    4.550996   -1.342174 H         1 <1>         0.062482 
     45 H           4.860143    4.814550    2.698017 H         1 <1>         0.064604 
     46 H           2.130865    6.748535   -0.127025 H         1 <1>         0.062744 
     47 H           0.953905    0.626176    1.795972 H         1 <1>         0.094160 
     48 H           2.344638   -0.509954    0.339087 H         1 <1>         0.064694 
     49 H           1.217536   -3.206971    1.312454 H         1 <1>         0.064673 
     50 H           2.591025   -0.987147    2.928787 H         1 <1>         0.064758 
     51 H          -0.363542   -1.884156    2.897516 H         1 <1>         0.067108 
     52 H           1.342362   -2.957823   -1.133576 H         1 <1>         0.059272 
     53 H           1.202289   -1.330585   -1.839289 H         1 <1>         0.059272 
     54 H           1.835934   -2.462028    4.673157 H         1 <1>         0.210005 
     55 H           3.525421   -3.529298    1.842965 H         1 <1>         0.210004 
     56 H           0.778252    0.361175    4.297227 H         1 <1>         0.210111 
     57 H           4.309305    7.870144    0.640340 H         1 <1>         0.027755 
     58 H           5.309611    6.506362    0.038552 H         1 <1>         0.027755 
     59 H           5.443304    7.041436    1.744233 H         1 <1>         0.027755 
     60 H           3.925113    2.914762    3.889526 H         1 <1>         0.217340 
     61 H           2.907155   -4.776990   -1.285835 H         1 <1>         0.065181 
     62 H           2.867722   -2.876904   -5.233728 H         1 <1>         0.065181 
     63 H           2.053396   -4.310778   -7.042437 H         1 <1>         0.217423 
     64 H           1.156029   -7.204359   -5.787094 H         1 <1>         0.217501 
     65 H           1.491917   -7.806966   -2.513004 H         1 <1>         0.217423 
@<TRIPOS>BOND
     1    1    2 1    
     2    1    6 2    
     3    1   42 1    
     4    2    3 2    
     5    2   43 1    
     6    3    4 1    
     7    3   15 1    
     8    4    5 2    
     9    4    7 1    
    10    5    6 1    
    11    5   10 1    
    12    6   44 1    
    13    7    8 1    
    14    7   16 2    
    15    8    9 1    
    16    8   11 2    
    17    9   10 1    
    18    9   14 2    
    19   10   17 2    
    20   11   12 1    
    21   11   29 1    
    22   12   13 2    
    23   12   45 1    
    24   13   14 1    
    25   13   28 1    
    26   14   46 1    
    27   15   18 1    
    28   18   19 1    
    29   18   23 1    
    30   18   47 1    
    31   19   20 1    
    32   20   21 1    
    33   20   24 1    
    34   20   48 1    
    35   21   22 1    
    36   21   26 1    
    37   21   49 1    
    38   22   23 1    
    39   22   25 1    
    40   22   50 1    
    41   23   27 1    
    42   23   51 1    
    43   24   30 1    
    44   24   52 1    
    45   24   53 1    
    46   25   54 1    
    47   26   55 1    
    48   27   56 1    
    49   28   57 1    
    50   28   58 1    
    51   28   59 1    
    52   29   60 1    
    53   30   31 1    
    54   31   32 1    
    55   31   33 2    
    56   32   34 1    
    57   32   38 2    
    58   34   35 2    
    59   34   61 1    
    60   35   36 1    
    61   35   41 1    
    62   36   37 2    
    63   36   40 1    
    64   37   38 1    
    65   37   39 1    
    66   38   62 1    
    67   39   63 1    
    68   40   64 1    
    69   41   65 1    
@<TRIPOS>SUBSTRUCTURE
     1 ****        1 TEMP              0 ****  ****    0 ROOT 
@<TRIPOS>NORMAL
@<TRIPOS>FF_PBC
FORCE_FIELD_SETUP_FEATURE Force Field Setup information
v1.0  0 0.000000 0.000000 0.000000 0.000000 0.000000 0.000000 NONE 0 0 0 0 1 0 0 0 0 0 0 0 0
