@<TRIPOS>MOLECULE
MOL001394
   56    55     1     1     0
SMALL
GASTEIGER


@<TRIPOS>ATOM
      1 C         -10.899483   -0.449720   -0.000112 C.3       1 <1>        -0.065276 
      2 C          -9.622826    0.431015    0.000114 C.3       1 <1>        -0.055911 
      3 C          -8.336841   -0.439715   -0.000111 C.3       1 <1>        -0.053306 
      4 C          -7.056705    0.440118    0.000113 C.3       1 <1>        -0.053065 
      5 C          -5.771812   -0.432606   -0.000111 C.3       1 <1>        -0.053057 
      6 C          -4.489956    0.444635    0.000113 C.3       1 <1>        -0.053057 
      7 C          -3.207335   -0.431508   -0.000111 C.3       1 <1>        -0.053057 
      8 C          -1.923285    0.442392    0.000113 C.3       1 <1>        -0.053057 
      9 C          -0.642421   -0.436313   -0.000112 C.3       1 <1>        -0.053057 
     10 C           0.642421    0.436313    0.000112 C.3       1 <1>        -0.053057 
     11 C           1.923285   -0.442392   -0.000113 C.3       1 <1>        -0.053057 
     12 C           3.207335    0.431508    0.000111 C.3       1 <1>        -0.053057 
     13 C           4.489956   -0.444635   -0.000113 C.3       1 <1>        -0.053057 
     14 C           5.771812    0.432606    0.000111 C.3       1 <1>        -0.053057 
     15 C           7.056705   -0.440118   -0.000113 C.3       1 <1>        -0.053065 
     16 C           8.336841    0.439715    0.000111 C.3       1 <1>        -0.053306 
     17 C           9.622826   -0.431015   -0.000114 C.3       1 <1>        -0.055911 
     18 C          10.899483    0.449720    0.000112 C.3       1 <1>        -0.065276 
     19 H         -11.798869    0.186272    0.000057 H         1 <1>         0.022978 
     20 H         -10.924122   -1.090582   -0.895279 H         1 <1>         0.022978 
     21 H         -10.924121   -1.091043    0.894725 H         1 <1>         0.022978 
     22 H          -9.631110    1.077234    0.893783 H         1 <1>         0.026265 
     23 H          -9.631114    1.077697   -0.893221 H         1 <1>         0.026265 
     24 H          -8.335542   -1.085581   -0.893635 H         1 <1>         0.026520 
     25 H          -8.335540   -1.086046    0.893078 H         1 <1>         0.026520 
     26 H          -7.058581    1.085928    0.893637 H         1 <1>         0.026528 
     27 H          -7.058583    1.086394   -0.893076 H         1 <1>         0.026528 
     28 H          -5.770619   -1.078480   -0.893586 H         1 <1>         0.026528 
     29 H          -5.770618   -1.078946    0.893028 H         1 <1>         0.026528 
     30 H          -4.490170    1.090488    0.893635 H         1 <1>         0.026528 
     31 H          -4.490170    1.090954   -0.893073 H         1 <1>         0.026528 
     32 H          -3.207808   -1.077391   -0.893630 H         1 <1>         0.026528 
     33 H          -3.207808   -1.077858    0.893072 H         1 <1>         0.026528 
     34 H          -1.922229    1.088221    0.893634 H         1 <1>         0.026528 
     35 H          -1.922229    1.088686   -0.893073 H         1 <1>         0.026528 
     36 H          -0.643771   -1.082174   -0.893616 H         1 <1>         0.026528 
     37 H          -0.643771   -1.082640    0.893058 H         1 <1>         0.026528 
     38 H           0.643771    1.082174    0.893616 H         1 <1>         0.026528 
     39 H           0.643771    1.082640   -0.893058 H         1 <1>         0.026528 
     40 H           1.922229   -1.088221   -0.893634 H         1 <1>         0.026528 
     41 H           1.922229   -1.088686    0.893073 H         1 <1>         0.026528 
     42 H           3.207808    1.077391    0.893630 H         1 <1>         0.026528 
     43 H           3.207808    1.077858   -0.893072 H         1 <1>         0.026528 
     44 H           4.490170   -1.090488   -0.893635 H         1 <1>         0.026528 
     45 H           4.490170   -1.090954    0.893073 H         1 <1>         0.026528 
     46 H           5.770619    1.078480    0.893586 H         1 <1>         0.026528 
     47 H           5.770618    1.078946   -0.893028 H         1 <1>         0.026528 
     48 H           7.058581   -1.085928   -0.893637 H         1 <1>         0.026528 
     49 H           7.058583   -1.086394    0.893076 H         1 <1>         0.026528 
     50 H           8.335542    1.085581    0.893635 H         1 <1>         0.026520 
     51 H           8.335540    1.086046   -0.893078 H         1 <1>         0.026520 
     52 H           9.631110   -1.077234   -0.893783 H         1 <1>         0.026265 
     53 H           9.631114   -1.077697    0.893221 H         1 <1>         0.026265 
     54 H          11.798869   -0.186272   -0.000057 H         1 <1>         0.022978 
     55 H          10.924122    1.090582    0.895279 H         1 <1>         0.022978 
     56 H          10.924121    1.091043   -0.894725 H         1 <1>         0.022978 
@<TRIPOS>BOND
     1    1    2 1    
     2    1   19 1    
     3    1   20 1    
     4    1   21 1    
     5    2    3 1    
     6    2   22 1    
     7    2   23 1    
     8    3    4 1    
     9    3   24 1    
    10    3   25 1    
    11    4    5 1    
    12    4   26 1    
    13    4   27 1    
    14    5    6 1    
    15    5   28 1    
    16    5   29 1    
    17    6    7 1    
    18    6   30 1    
    19    6   31 1    
    20    7    8 1    
    21    7   32 1    
    22    7   33 1    
    23    8    9 1    
    24    8   34 1    
    25    8   35 1    
    26    9   10 1    
    27    9   36 1    
    28    9   37 1    
    29   10   11 1    
    30   10   38 1    
    31   10   39 1    
    32   11   12 1    
    33   11   40 1    
    34   11   41 1    
    35   12   13 1    
    36   12   42 1    
    37   12   43 1    
    38   13   14 1    
    39   13   44 1    
    40   13   45 1    
    41   14   15 1    
    42   14   46 1    
    43   14   47 1    
    44   15   16 1    
    45   15   48 1    
    46   15   49 1    
    47   16   17 1    
    48   16   50 1    
    49   16   51 1    
    50   17   18 1    
    51   17   52 1    
    52   17   53 1    
    53   18   54 1    
    54   18   55 1    
    55   18   56 1    
@<TRIPOS>SUBSTRUCTURE
     1 ****        1 TEMP              0 ****  ****    0 ROOT 
@<TRIPOS>NORMAL
@<TRIPOS>FF_PBC
FORCE_FIELD_SETUP_FEATURE Force Field Setup information
v1.0  0 0.000000 0.000000 0.000000 0.000000 0.000000 0.000000 NONE 0 0 0 0 1 0 0 0 0 0 0 0 0
