@<TRIPOS>MOLECULE
MOL000914
   26    27     1     1     0
SMALL
GASTEIGER


@<TRIPOS>ATOM
      1 C          -1.915282    0.715982   -0.561854 C.2       1 <1>        -0.084194 
      2 C          -1.299938   -0.650288   -0.484322 C.3       1 <1>        -0.028037 
      3 C           0.209921   -0.324307   -0.334403 C.3       1 <1>        -0.016432 
      4 C           1.113934   -1.107099    0.661595 C.3       1 <1>        -0.040217 
      5 C           0.647439   -0.919371    2.131121 C.3       1 <1>        -0.062134 
      6 C           1.138620   -2.607183    0.269138 C.3       1 <1>        -0.062134 
      7 C           0.909016    0.257735   -1.581390 C.3       1 <1>        -0.039254 
      8 C           0.415861    1.204856   -0.463817 C.3       1 <1>        -0.013443 
      9 C          -1.001547    1.686894   -0.541971 C.2       1 <1>        -0.072870 
     10 C          -1.257821    3.168921   -0.597892 C.3       1 <1>        -0.043506 
     11 H          -2.989840    0.886716   -0.625857 H         1 <1>         0.057181 
     12 H          -1.488007   -1.233515   -1.398335 H         1 <1>         0.031302 
     13 H          -1.708280   -1.187191    0.382635 H         1 <1>         0.031302 
     14 H           2.147084   -0.723000    0.595472 H         1 <1>         0.030108 
     15 H           1.366573   -1.392777    2.817891 H         1 <1>         0.023251 
     16 H           0.585649    0.151405    2.378782 H         1 <1>         0.023251 
     17 H          -0.337226   -1.375423    2.305950 H         1 <1>         0.023251 
     18 H           1.815232   -3.167512    0.933069 H         1 <1>         0.023251 
     19 H           1.493266   -2.718723   -0.767566 H         1 <1>         0.023251 
     20 H           0.132141   -3.045810    0.344148 H         1 <1>         0.023251 
     21 H           2.004626    0.205982   -1.670812 H         1 <1>         0.027683 
     22 H           0.343245    0.336143   -2.522372 H         1 <1>         0.027683 
     23 H           1.103247    1.585766    0.306843 H         1 <1>         0.035123 
     24 H          -2.334205    3.384706   -0.674500 H         1 <1>         0.027445 
     25 H          -0.864862    3.644753    0.313008 H         1 <1>         0.027445 
     26 H          -0.747408    3.595456   -1.474292 H         1 <1>         0.027445 
@<TRIPOS>BOND
     1    1    2 1    
     2    1    9 2    
     3    1   11 1    
     4    2    3 1    
     5    2   12 1    
     6    2   13 1    
     7    3    4 1    
     8    3    7 1    
     9    3    8 1    
    10    4    5 1    
    11    4    6 1    
    12    4   14 1    
    13    5   15 1    
    14    5   16 1    
    15    5   17 1    
    16    6   18 1    
    17    6   19 1    
    18    6   20 1    
    19    7    8 1    
    20    7   21 1    
    21    7   22 1    
    22    8    9 1    
    23    8   23 1    
    24    9   10 1    
    25   10   24 1    
    26   10   25 1    
    27   10   26 1    
@<TRIPOS>SUBSTRUCTURE
     1 ****        1 TEMP              0 ****  ****    0 ROOT 
@<TRIPOS>NORMAL
@<TRIPOS>FF_PBC
FORCE_FIELD_SETUP_FEATURE Force Field Setup information
v1.0  0 0.000000 0.000000 0.000000 0.000000 0.000000 0.000000 NONE 0 0 0 0 1 0 0 0 0 0 0 0 0
