@<TRIPOS>MOLECULE
MOL002116
   39    40     1     1     0
SMALL
GASTEIGER


@<TRIPOS>ATOM
      1 C          -0.400154   -0.407851    0.242270 C.3       1 <1>        -0.016478 
      2 C          -0.367991   -1.965310    0.296199 C.3       1 <1>        -0.037369 
      3 C           0.841651   -2.303061    1.208349 C.3       1 <1>        -0.049373 
      4 C           1.801046   -1.081325    1.127509 C.3       1 <1>        -0.045745 
      5 C           1.122735   -0.053153    0.176351 C.3       1 <1>        -0.014224 
      6 C          -1.232503    0.150802   -0.946901 C.3       1 <1>        -0.042622 
      7 C          -1.139340    1.697310   -1.023292 C.3       1 <1>        -0.031467 
      8 C          -1.220813    2.376121    0.323967 C.2       1 <1>        -0.076494 
      9 C          -1.177413    1.690005    1.474710 C.2       1 <1>        -0.084475 
     10 C          -1.042027    0.189381    1.534492 C.3       1 <1>        -0.028047 
     11 C           1.821404   -0.001983   -1.185642 C.2       1 <1>        -0.076069 
     12 C          -1.666349   -2.699154    0.736920 C.3       1 <1>        -0.061883 
     13 C          -1.349550    3.882701    0.294131 C.3       1 <1>        -0.043787 
     14 C           2.351223    1.137088   -1.660192 C.2       1 <1>        -0.099429 
     15 C           1.939969   -1.273538   -2.007011 C.3       1 <1>        -0.043759 
     16 H          -0.158511   -2.331929   -0.719123 H         1 <1>         0.030374 
     17 H           1.330271   -3.238584    0.888756 H         1 <1>         0.026821 
     18 H           0.504691   -2.443733    2.248819 H         1 <1>         0.026821 
     19 H           1.924191   -0.647341    2.135395 H         1 <1>         0.027123 
     20 H           2.810809   -1.360076    0.785711 H         1 <1>         0.027123 
     21 H           1.248789    0.946681    0.623762 H         1 <1>         0.035098 
     22 H          -0.918710   -0.277061   -1.909463 H         1 <1>         0.027398 
     23 H          -2.288670   -0.125143   -0.798335 H         1 <1>         0.027398 
     24 H          -1.947879    2.068043   -1.674298 H         1 <1>         0.031007 
     25 H          -0.186710    1.992738   -1.483602 H         1 <1>         0.031007 
     26 H          -1.250517    2.219400    2.425796 H         1 <1>         0.057172 
     27 H          -0.462582   -0.089735    2.426890 H         1 <1>         0.031302 
     28 H          -2.070871   -0.172161    1.674843 H         1 <1>         0.031302 
     29 H          -1.524194   -3.786373    0.631351 H         1 <1>         0.023259 
     30 H          -2.517488   -2.401785    0.106546 H         1 <1>         0.023259 
     31 H          -1.917274   -2.501538    1.789137 H         1 <1>         0.023259 
     32 H          -1.362624    4.328607    1.300119 H         1 <1>         0.027436 
     33 H          -2.282890    4.162299   -0.217043 H         1 <1>         0.027436 
     34 H          -0.500647    4.311518   -0.259283 H         1 <1>         0.027436 
     35 H           2.848515    1.177497   -2.628788 H         1 <1>         0.053440 
     36 H           2.315758    2.077264   -1.110468 H         1 <1>         0.053440 
     37 H           2.761763   -1.198897   -2.735115 H         1 <1>         0.027436 
     38 H           2.156515   -2.153265   -1.386699 H         1 <1>         0.027436 
     39 H           1.021896   -1.455739   -2.580530 H         1 <1>         0.027436 
@<TRIPOS>BOND
     1    1    2 1    
     2    1    5 1    
     3    1    6 1    
     4    1   10 1    
     5    2    3 1    
     6    2   12 1    
     7    2   16 1    
     8    3    4 1    
     9    3   17 1    
    10    3   18 1    
    11    4    5 1    
    12    4   19 1    
    13    4   20 1    
    14    5   11 1    
    15    5   21 1    
    16    6    7 1    
    17    6   22 1    
    18    6   23 1    
    19    7    8 1    
    20    7   24 1    
    21    7   25 1    
    22    8    9 2    
    23    8   13 1    
    24    9   10 1    
    25    9   26 1    
    26   10   27 1    
    27   10   28 1    
    28   11   14 2    
    29   11   15 1    
    30   12   29 1    
    31   12   30 1    
    32   12   31 1    
    33   13   32 1    
    34   13   33 1    
    35   13   34 1    
    36   14   35 1    
    37   14   36 1    
    38   15   37 1    
    39   15   38 1    
    40   15   39 1    
@<TRIPOS>SUBSTRUCTURE
     1 ****        1 TEMP              0 ****  ****    0 ROOT 
@<TRIPOS>NORMAL
@<TRIPOS>FF_PBC
FORCE_FIELD_SETUP_FEATURE Force Field Setup information
v1.0  0 0.000000 0.000000 0.000000 0.000000 0.000000 0.000000 NONE 0 0 0 0 1 0 0 0 0 0 0 0 0
