@<TRIPOS>MOLECULE
MOL004962
   79    83     1     1     0
SMALL
GASTEIGER


@<TRIPOS>ATOM
      1 C           2.775257    0.075886   -2.696440 C.3       1 <1>        -0.031533 
      2 C           2.660271    0.706905   -1.272418 C.3       1 <1>        -0.013007 
      3 C           3.759430    0.226894   -0.285009 C.3       1 <1>        -0.025453 
      4 C           5.167634    0.301662   -0.961805 C.3       1 <1>        -0.046118 
      5 C           5.251875   -0.391929   -2.346106 C.3       1 <1>        -0.038057 
      6 C           4.187297    0.132154   -3.354184 C.3       1 <1>         0.053721 
      7 C           1.227240    0.540901   -0.766782 C.2       1 <1>        -0.063388 
      8 C           0.833592   -0.658217    0.101332 C.3       1 <1>        -0.005119 
      9 C           4.199042   -0.814300   -4.598827 C.3       1 <1>        -0.050480 
     10 C           4.506186    1.533215   -3.857800 C.2       1 <1>         0.265560 
     11 C           2.036414   -1.301822    0.887660 C.3       1 <1>        -0.042891 
     12 C           3.415456   -1.222559    0.170506 C.3       1 <1>        -0.046277 
     13 C           0.307184    1.440193   -1.149004 C.2       1 <1>        -0.083647 
     14 C          -1.153194    1.413085   -0.779948 C.3       1 <1>        -0.030613 
     15 C          -1.574201    0.280884    0.209336 C.3       1 <1>        -0.025662 
     16 C          -0.355657   -0.209375    1.080986 C.3       1 <1>        -0.019371 
     17 C          -2.958546    0.533479    0.942460 C.3       1 <1>        -0.022849 
     18 C          -3.315366   -0.796601    1.703904 C.3       1 <1>        -0.004267 
     19 C          -2.199147   -1.186084    2.719585 C.3       1 <1>        -0.046490 
     20 C          -0.821926   -1.385741    2.012637 C.3       1 <1>        -0.046195 
     21 C          -4.094674    0.718359   -0.118637 C.3       1 <1>        -0.044570 
     22 C          -5.524544    0.871577    0.492166 C.3       1 <1>        -0.023639 
     23 C          -5.672714    0.316350    1.936762 C.3       1 <1>         0.083894 
     24 C          -4.804405   -0.947110    2.209436 C.3       1 <1>         0.092304 
     25 O           4.772702    1.752655   -5.030140 O.2       1 <1>        -0.264567 
     26 O           4.477536    2.530763   -2.973563 O.3       1 <1>        -0.330857 
     27 C           3.812171    1.193233    0.941968 C.3       1 <1>        -0.059017 
     28 C           0.395333   -1.723569   -0.978602 C.3       1 <1>        -0.055324 
     29 C           0.107228    0.944892    2.039010 C.3       1 <1>        -0.058491 
     30 C          -2.952647    1.820732    1.847914 C.3       1 <1>        -0.058936 
     31 O          -4.896418   -1.110257    3.640641 O.3       1 <1>        -0.386002 
     32 O          -5.429552    1.329999    2.929585 O.3       1 <1>        -0.388952 
     33 C          -5.516614   -2.173889    1.551877 C.3       1 <1>        -0.033358 
     34 H           2.051971    0.565375   -3.369664 H         1 <1>         0.028121 
     35 H           2.494274   -0.978627   -2.646046 H         1 <1>         0.028121 
     36 H           2.845770    1.783230   -1.401195 H         1 <1>         0.035135 
     37 H           5.468804    1.349650   -1.107094 H         1 <1>         0.027098 
     38 H           5.916747   -0.149760   -0.290828 H         1 <1>         0.027098 
     39 H           6.255087   -0.228546   -2.774380 H         1 <1>         0.027550 
     40 H           5.138218   -1.476938   -2.203294 H         1 <1>         0.027550 
     41 H           3.442917   -0.496000   -5.333314 H         1 <1>         0.023986 
     42 H           3.980490   -1.857130   -4.321444 H         1 <1>         0.023986 
     43 H           5.186036   -0.800045   -5.086846 H         1 <1>         0.023986 
     44 H           1.807218   -2.361115    1.089800 H         1 <1>         0.027392 
     45 H           2.210271   -0.866967    1.873814 H         1 <1>         0.027392 
     46 H           3.425342   -1.913354   -0.680570 H         1 <1>         0.027096 
     47 H           4.200741   -1.576957    0.860014 H         1 <1>         0.027096 
     48 H           0.602421    2.271491   -1.792298 H         1 <1>         0.057198 
     49 H          -1.714965    1.324689   -1.724482 H         1 <1>         0.031042 
     50 H          -1.365672    2.412614   -0.384273 H         1 <1>         0.031042 
     51 H          -1.785964   -0.568867   -0.451771 H         1 <1>         0.031461 
     52 H          -3.224907   -1.597834    0.954389 H         1 <1>         0.033457 
     53 H          -2.440658   -2.155662    3.185876 H         1 <1>         0.026918 
     54 H          -2.136132   -0.459703    3.539729 H         1 <1>         0.026918 
     55 H          -0.060709   -1.576117    2.786578 H         1 <1>         0.027097 
     56 H          -0.922575   -2.323912    1.456554 H         1 <1>         0.027097 
     57 H          -3.898335    1.604200   -0.743363 H         1 <1>         0.027151 
     58 H          -4.099877   -0.152100   -0.795802 H         1 <1>         0.027151 
     59 H          -6.245602    0.367164   -0.173851 H         1 <1>         0.029113 
     60 H          -5.830028    1.931188    0.524689 H         1 <1>         0.029113 
     61 H          -6.739606    0.071171    2.091760 H         1 <1>         0.062180 
     62 H           4.675438    3.371509   -3.370937 H         1 <1>         0.220226 
     63 H           4.479915    0.797486    1.722107 H         1 <1>         0.023525 
     64 H           4.177491    2.192587    0.658647 H         1 <1>         0.023525 
     65 H           2.821380    1.349010    1.376638 H         1 <1>         0.023525 
     66 H          -0.295174   -2.487235   -0.611211 H         1 <1>         0.023829 
     67 H          -0.086242   -1.265259   -1.856775 H         1 <1>         0.023829 
     68 H           1.242088   -2.305670   -1.357601 H         1 <1>         0.023829 
     69 H           0.340048    1.866205    1.488406 H         1 <1>         0.023542 
     70 H          -0.644646    1.175570    2.794071 H         1 <1>         0.023542 
     71 H           0.972149    0.706009    2.661108 H         1 <1>         0.023542 
     72 H          -2.091111    2.475767    1.697830 H         1 <1>         0.023526 
     73 H          -3.795628    2.492024    1.644900 H         1 <1>         0.023526 
     74 H          -2.990073    1.575695    2.916311 H         1 <1>         0.023526 
     75 H          -4.579288   -1.943102    3.970046 H         1 <1>         0.210271 
     76 H          -5.469653    0.972544    3.813975 H         1 <1>         0.209901 
     77 H          -6.538068   -2.297776    1.944066 H         1 <1>         0.025814 
     78 H          -4.962416   -3.100959    1.765119 H         1 <1>         0.025814 
     79 H          -5.579979   -2.049646    0.459940 H         1 <1>         0.025814 
@<TRIPOS>BOND
     1    1    2 1    
     2    1    6 1    
     3    1   34 1    
     4    1   35 1    
     5    2    3 1    
     6    2    7 1    
     7    2   36 1    
     8    3    4 1    
     9    3   12 1    
    10    3   27 1    
    11    4    5 1    
    12    4   37 1    
    13    4   38 1    
    14    5    6 1    
    15    5   39 1    
    16    5   40 1    
    17    6    9 1    
    18    6   10 1    
    19    7    8 1    
    20    7   13 2    
    21    8   11 1    
    22    8   16 1    
    23    8   28 1    
    24    9   41 1    
    25    9   42 1    
    26    9   43 1    
    27   10   25 2    
    28   10   26 1    
    29   11   12 1    
    30   11   44 1    
    31   11   45 1    
    32   12   46 1    
    33   12   47 1    
    34   13   14 1    
    35   13   48 1    
    36   14   15 1    
    37   14   49 1    
    38   14   50 1    
    39   15   16 1    
    40   15   17 1    
    41   15   51 1    
    42   16   20 1    
    43   16   29 1    
    44   17   18 1    
    45   17   21 1    
    46   17   30 1    
    47   18   19 1    
    48   18   24 1    
    49   18   52 1    
    50   19   20 1    
    51   19   53 1    
    52   19   54 1    
    53   20   55 1    
    54   20   56 1    
    55   21   22 1    
    56   21   57 1    
    57   21   58 1    
    58   22   23 1    
    59   22   59 1    
    60   22   60 1    
    61   23   24 1    
    62   23   32 1    
    63   23   61 1    
    64   24   31 1    
    65   24   33 1    
    66   26   62 1    
    67   27   63 1    
    68   27   64 1    
    69   27   65 1    
    70   28   66 1    
    71   28   67 1    
    72   28   68 1    
    73   29   69 1    
    74   29   70 1    
    75   29   71 1    
    76   30   72 1    
    77   30   73 1    
    78   30   74 1    
    79   31   75 1    
    80   32   76 1    
    81   33   77 1    
    82   33   78 1    
    83   33   79 1    
@<TRIPOS>SUBSTRUCTURE
     1 ****        1 TEMP              0 ****  ****    0 ROOT 
@<TRIPOS>NORMAL
@<TRIPOS>FF_PBC
FORCE_FIELD_SETUP_FEATURE Force Field Setup information
v1.0  0 0.000000 0.000000 0.000000 0.000000 0.000000 0.000000 NONE 0 0 0 0 1 0 0 0 0 0 0 0 0
