@<TRIPOS>MOLECULE
MOL002297
   74    77     1     1     0
SMALL
GASTEIGER


@<TRIPOS>ATOM
      1 O           3.275109    2.752809   -6.527409 O.3       1 <1>        -0.391474 
      2 C           4.263463    1.729120   -6.308746 C.3       1 <1>         0.058933 
      3 C           3.576646    0.342682   -6.286986 C.3       1 <1>        -0.005334 
      4 C           2.778842    0.004181   -5.041724 C.2       1 <1>        -0.067657 
      5 C           3.310201    0.487174   -3.699396 C.3       1 <1>        -0.016639 
      6 C           3.967479    1.894867   -3.816706 C.3       1 <1>        -0.043907 
      7 C           5.001321    1.951065   -4.967912 C.3       1 <1>        -0.026010 
      8 C           2.320475    0.323211   -2.476564 C.3       1 <1>        -0.031142 
      9 C           0.879063   -0.078113   -2.887170 C.3       1 <1>        -0.031142 
     10 C           0.873041   -1.181175   -3.971303 C.3       1 <1>        -0.031128 
     11 C           1.675605   -0.745026   -5.159483 C.2       1 <1>        -0.084130 
     12 C           2.233162    1.534834   -1.479972 C.3       1 <1>        -0.049132 
     13 C           0.925051    1.557751   -0.625941 C.3       1 <1>        -0.049413 
     14 C           0.461571    0.113678   -0.313231 C.3       1 <1>        -0.034853 
     15 C           0.078065   -0.587435   -1.641551 C.3       1 <1>        -0.034557 
     16 C          -1.462176   -0.412478   -1.780946 C.3       1 <1>        -0.049413 
     17 C          -0.824150    0.008273    0.560630 C.3       1 <1>        -0.035354 
     18 C          -1.936476    0.300377   -0.486346 C.3       1 <1>        -0.049439 
     19 C          -1.056219   -1.393497    1.237340 C.3       1 <1>        -0.040777 
     20 C           0.231529   -2.033778    1.835090 C.3       1 <1>        -0.062155 
     21 C          -2.191102   -1.355054    2.321576 C.3       1 <1>        -0.049941 
     22 C          -1.762603   -0.838932    3.728501 C.3       1 <1>        -0.049734 
     23 C          -2.935491   -0.578651    4.731467 C.3       1 <1>        -0.038944 
     24 C          -3.817609   -1.862415    4.934912 C.3       1 <1>        -0.052828 
     25 C          -2.426663   -0.039743    6.120839 C.3       1 <1>        -0.043894 
     26 C          -5.101418   -1.903786    4.057298 C.3       1 <1>        -0.065017 
     27 C          -3.569780    0.690747    6.892480 C.3       1 <1>        -0.062414 
     28 C          -1.219746    0.939272    6.032688 C.3       1 <1>        -0.062414 
     29 H           3.649103    3.627434   -6.580542 H         1 <1>         0.209789 
     30 H           4.986898    1.751812   -7.144615 H         1 <1>         0.059621 
     31 H           2.951626    0.283028   -7.192365 H         1 <1>         0.033501 
     32 H           4.352778   -0.432913   -6.361771 H         1 <1>         0.033501 
     33 H           4.163874   -0.187441   -3.518767 H         1 <1>         0.034838 
     34 H           4.492670    2.149914   -2.880154 H         1 <1>         0.027186 
     35 H           3.203558    2.659309   -4.023955 H         1 <1>         0.027186 
     36 H           5.499542    2.934803   -4.981219 H         1 <1>         0.029030 
     37 H           5.776257    1.179751   -4.824762 H         1 <1>         0.029030 
     38 H           2.678105   -0.544192   -1.890582 H         1 <1>         0.030933 
     39 H           0.423847    0.828632   -3.319039 H         1 <1>         0.030932 
     40 H          -0.166114   -1.383776   -4.275487 H         1 <1>         0.031025 
     41 H           1.317936   -2.120662   -3.602046 H         1 <1>         0.031025 
     42 H           1.339631   -1.092419   -6.138418 H         1 <1>         0.057181 
     43 H           3.116650    1.512425   -0.818095 H         1 <1>         0.026829 
     44 H           2.223606    2.505906   -1.994047 H         1 <1>         0.026829 
     45 H           0.129934    2.089089   -1.174517 H         1 <1>         0.026820 
     46 H           1.104718    2.116228    0.308553 H         1 <1>         0.026820 
     47 H           1.336285   -0.332892    0.180452 H         1 <1>         0.030628 
     48 H           0.304669   -1.654832   -1.468189 H         1 <1>         0.030637 
     49 H          -1.937786   -1.403460   -1.870689 H         1 <1>         0.026820 
     50 H          -1.760541    0.171714   -2.664802 H         1 <1>         0.026820 
     51 H          -0.796881    0.785408    1.338917 H         1 <1>         0.030611 
     52 H          -2.020725    1.385924   -0.651007 H         1 <1>         0.026819 
     53 H          -2.940042   -0.049344   -0.207036 H         1 <1>         0.026819 
     54 H          -1.392789   -2.085964    0.446234 H         1 <1>         0.030088 
     55 H          -0.023295   -2.901818    2.461876 H         1 <1>         0.023250 
     56 H           0.901137   -2.405858    1.045036 H         1 <1>         0.023250 
     57 H           0.774882   -1.299206    2.447936 H         1 <1>         0.023250 
     58 H          -2.580528   -2.378619    2.437052 H         1 <1>         0.026802 
     59 H          -3.017889   -0.717897    1.978272 H         1 <1>         0.026802 
     60 H          -1.220271    0.097422    3.547366 H         1 <1>         0.026810 
     61 H          -1.073961   -1.554647    4.200521 H         1 <1>         0.026810 
     62 H          -3.554502    0.219043    4.287574 H         1 <1>         0.030319 
     63 H          -3.218908   -2.770899    4.760366 H         1 <1>         0.026538 
     64 H          -4.176146   -1.944666    5.970274 H         1 <1>         0.026538 
     65 H          -2.086247   -0.900231    6.725784 H         1 <1>         0.029814 
     66 H          -5.673416   -2.823041    4.262884 H         1 <1>         0.022986 
     67 H          -5.745641   -1.042890    4.292976 H         1 <1>         0.022986 
     68 H          -4.879759   -1.882279    2.983409 H         1 <1>         0.022986 
     69 H          -3.239929    0.951081    7.909501 H         1 <1>         0.023242 
     70 H          -4.480965    0.086718    6.987414 H         1 <1>         0.023242 
     71 H          -3.845606    1.622814    6.379404 H         1 <1>         0.023242 
     72 H          -0.972603    1.344381    7.025056 H         1 <1>         0.023242 
     73 H          -0.316022    0.431928    5.667384 H         1 <1>         0.023242 
     74 H          -1.452124    1.783998    5.369753 H         1 <1>         0.023242 
@<TRIPOS>BOND
     1    1    2 1    
     2    1   29 1    
     3    2    3 1    
     4    2    7 1    
     5    2   30 1    
     6    3    4 1    
     7    3   31 1    
     8    3   32 1    
     9    4    5 1    
    10    4   11 2    
    11    5    6 1    
    12    5    8 1    
    13    5   33 1    
    14    6    7 1    
    15    6   34 1    
    16    6   35 1    
    17    7   36 1    
    18    7   37 1    
    19    8    9 1    
    20    8   12 1    
    21    8   38 1    
    22    9   10 1    
    23    9   15 1    
    24    9   39 1    
    25   10   11 1    
    26   10   40 1    
    27   10   41 1    
    28   11   42 1    
    29   12   13 1    
    30   12   43 1    
    31   12   44 1    
    32   13   14 1    
    33   13   45 1    
    34   13   46 1    
    35   14   15 1    
    36   14   17 1    
    37   14   47 1    
    38   15   16 1    
    39   15   48 1    
    40   16   18 1    
    41   16   49 1    
    42   16   50 1    
    43   17   18 1    
    44   17   19 1    
    45   17   51 1    
    46   18   52 1    
    47   18   53 1    
    48   19   20 1    
    49   19   21 1    
    50   19   54 1    
    51   20   55 1    
    52   20   56 1    
    53   20   57 1    
    54   21   22 1    
    55   21   58 1    
    56   21   59 1    
    57   22   23 1    
    58   22   60 1    
    59   22   61 1    
    60   23   24 1    
    61   23   25 1    
    62   23   62 1    
    63   24   26 1    
    64   24   63 1    
    65   24   64 1    
    66   25   27 1    
    67   25   28 1    
    68   25   65 1    
    69   26   66 1    
    70   26   67 1    
    71   26   68 1    
    72   27   69 1    
    73   27   70 1    
    74   27   71 1    
    75   28   72 1    
    76   28   73 1    
    77   28   74 1    
@<TRIPOS>SUBSTRUCTURE
     1 ****        1 TEMP              0 ****  ****    0 ROOT 
@<TRIPOS>NORMAL
@<TRIPOS>FF_PBC
FORCE_FIELD_SETUP_FEATURE Force Field Setup information
v1.0  0 0.000000 0.000000 0.000000 0.000000 0.000000 0.000000 NONE 0 0 0 0 1 0 0 0 0 0 0 0 0
