@<TRIPOS>MOLECULE
MOL004842
   47    48     1     1     0
SMALL
GASTEIGER


@<TRIPOS>ATOM
      1 C           4.331400    0.898921   -0.784392 C.2       1 <1>         0.186081 
      2 C           3.694953    2.226752   -0.868568 C.2       1 <1>        -0.013714 
      3 C           2.478812    2.580655   -0.426634 C.2       1 <1>        -0.048485 
      4 O           5.548185    0.824790   -0.814008 O.2       1 <1>        -0.287281 
      5 C           3.527730   -0.374567   -0.644405 C.ar      1 <1>         0.021815 
      6 C           4.039019   -1.445676    0.243917 C.ar      1 <1>        -0.048509 
      7 C           3.281088   -2.600393    0.459594 C.ar      1 <1>        -0.031268 
      8 C           1.968069   -2.768233   -0.213017 C.ar      1 <1>         0.072619 
      9 C           1.507921   -1.773448   -1.082306 C.ar      1 <1>        -0.031268 
     10 C           2.311857   -0.551356   -1.317909 C.ar      1 <1>        -0.048509 
     11 O           1.182665   -3.900265    0.013791 O.3       1 <1>        -0.359832 
     12 C           1.532129    1.644384    0.294248 C.ar      1 <1>         0.005504 
     13 C           0.104164    1.620088   -0.107654 C.ar      1 <1>         0.088829 
     14 C          -0.785566    0.688253    0.461767 C.ar      1 <1>         0.016535 
     15 C          -0.280436   -0.266726    1.480563 C.ar      1 <1>         0.078527 
     16 C           1.056578   -0.195377    1.903667 C.ar      1 <1>        -0.030943 
     17 C           1.979668    0.802397    1.316628 C.ar      1 <1>        -0.049679 
     18 C          -2.269349    0.648329    0.052841 C.3       1 <1>        -0.004335 
     19 C          -2.797528   -0.729677   -0.280646 C.2       1 <1>        -0.080815 
     20 C          -4.088667   -1.008720   -0.528586 C.2       1 <1>        -0.079306 
     21 C          -4.533646   -2.427354   -0.816377 C.3       1 <1>        -0.044040 
     22 C          -5.194524    0.028102   -0.553007 C.3       1 <1>        -0.044040 
     23 O          -0.342036    2.534377   -1.061923 O.3       1 <1>        -0.346961 
     24 C          -0.835507    3.768424   -0.507031 C.3       1 <1>         0.043064 
     25 O          -1.144103   -1.225484    2.012798 O.3       1 <1>        -0.359468 
     26 H           4.302082    2.993240   -1.347002 H         1 <1>         0.065602 
     27 H           2.134383    3.598091   -0.601736 H         1 <1>         0.062539 
     28 H           5.002034   -1.328427    0.731081 H         1 <1>         0.062539 
     29 H           3.660449   -3.371361    1.121114 H         1 <1>         0.064339 
     30 H           0.550679   -1.896641   -1.576674 H         1 <1>         0.064339 
     31 H           1.943680    0.206946   -2.001606 H         1 <1>         0.062539 
     32 H           1.578389   -4.513854    0.622137 H         1 <1>         0.217313 
     33 H           1.429561   -0.878687    2.659766 H         1 <1>         0.064349 
     34 H           3.004492    0.864357    1.670618 H         1 <1>         0.062503 
     35 H          -2.829851    1.050584    0.908887 H         1 <1>         0.035721 
     36 H          -2.445040    1.287549   -0.825016 H         1 <1>         0.035721 
     37 H          -2.072795   -1.544509   -0.324587 H         1 <1>         0.057473 
     38 H          -5.550557   -2.602713   -0.434964 H         1 <1>         0.027427 
     39 H          -4.533249   -2.592830   -1.903407 H         1 <1>         0.027427 
     40 H          -3.869898   -3.167997   -0.346844 H         1 <1>         0.027427 
     41 H          -4.841874    1.064062   -0.476648 H         1 <1>         0.027427 
     42 H          -5.884870   -0.158887    0.282369 H         1 <1>         0.027427 
     43 H          -5.750616   -0.063824   -1.497727 H         1 <1>         0.027427 
     44 H          -0.083224    4.268055    0.122896 H         1 <1>         0.052870 
     45 H          -1.086644    4.439471   -1.340583 H         1 <1>         0.052870 
     46 H          -1.740181    3.600017    0.097862 H         1 <1>         0.052870 
     47 H          -0.697470   -2.028751    2.257560 H         1 <1>         0.217326 
@<TRIPOS>BOND
     1    1    2 1    
     2    1    4 2    
     3    1    5 1    
     4    2    3 2    
     5    2   26 1    
     6    3   12 1    
     7    3   27 1    
     8    5    6 1    
     9    5   10 2    
    10    6    7 2    
    11    6   28 1    
    12    7    8 1    
    13    7   29 1    
    14    8    9 2    
    15    8   11 1    
    16    9   10 1    
    17    9   30 1    
    18   10   31 1    
    19   11   32 1    
    20   12   13 1    
    21   12   17 2    
    22   13   14 2    
    23   13   23 1    
    24   14   15 1    
    25   14   18 1    
    26   15   16 2    
    27   15   25 1    
    28   16   17 1    
    29   16   33 1    
    30   17   34 1    
    31   18   19 1    
    32   18   35 1    
    33   18   36 1    
    34   19   20 2    
    35   19   37 1    
    36   20   21 1    
    37   20   22 1    
    38   21   38 1    
    39   21   39 1    
    40   21   40 1    
    41   22   41 1    
    42   22   42 1    
    43   22   43 1    
    44   23   24 1    
    45   24   44 1    
    46   24   45 1    
    47   24   46 1    
    48   25   47 1    
@<TRIPOS>SUBSTRUCTURE
     1 ****        1 TEMP              0 ****  ****    0 ROOT 
@<TRIPOS>NORMAL
@<TRIPOS>FF_PBC
FORCE_FIELD_SETUP_FEATURE Force Field Setup information
v1.0  0 0.000000 0.000000 0.000000 0.000000 0.000000 0.000000 NONE 0 0 0 0 1 0 0 0 0 0 0 0 0
