@<TRIPOS>MOLECULE
MOL004688
   24    24     1     1     0
SMALL
GASTEIGER


@<TRIPOS>ATOM
      1 C           2.513925    2.809392   -0.751766 C.2       1 <1>         0.291236 
      2 C           1.565192    1.670355   -0.445586 C.ar      1 <1>         0.046297 
      3 C          -0.245005   -0.542923    0.146976 C.ar      1 <1>        -0.044752 
      4 O           2.070098    3.911086   -1.037765 O.2       1 <1>        -0.259430 
      5 C           2.100595    0.333050   -0.092859 C.ar      1 <1>        -0.048616 
      6 C           0.165040    1.861495   -0.490735 C.ar      1 <1>        -0.048616 
      7 C          -0.755511    0.739384   -0.190523 C.ar      1 <1>        -0.057586 
      8 C           1.226825   -0.734888    0.193213 C.ar      1 <1>        -0.057586 
      9 O           3.832366    2.599806   -0.706823 O.3       1 <1>        -0.327490 
     10 C          -1.189484   -1.717384    0.459963 C.3       1 <1>        -0.021514 
     11 C          -2.063067   -1.403960    1.703637 C.3       1 <1>        -0.058650 
     12 C          -2.060566   -2.063756   -0.776639 C.3       1 <1>        -0.058650 
     13 H           3.173407    0.173651   -0.054121 H         1 <1>         0.062535 
     14 H          -0.246036    2.832692   -0.746240 H         1 <1>         0.062535 
     15 H          -1.824204    0.914783   -0.233488 H         1 <1>         0.062057 
     16 H           1.641867   -1.704312    0.448988 H         1 <1>         0.062057 
     17 H           4.330217    3.382556   -0.916784 H         1 <1>         0.220555 
     18 H          -0.583266   -2.608487    0.697870 H         1 <1>         0.034345 
     19 H          -2.673082   -2.280642    1.972243 H         1 <1>         0.023545 
     20 H          -1.418154   -1.151149    2.559799 H         1 <1>         0.023545 
     21 H          -2.739738   -0.558145    1.513147 H         1 <1>         0.023545 
     22 H          -2.672373   -2.956915   -0.574734 H         1 <1>         0.023545 
     23 H          -1.413838   -2.271544   -1.643497 H         1 <1>         0.023545 
     24 H          -2.735107   -1.234046   -1.033975 H         1 <1>         0.023545 
@<TRIPOS>BOND
     1    2    1 1    
     2    1    4 2    
     3    1    9 1    
     4    5    2 1    
     5    2    6 2    
     6    3    7 2    
     7    8    3 1    
     8    3   10 1    
     9    5    8 2    
    10    5   13 1    
    11    6    7 1    
    12    6   14 1    
    13    7   15 1    
    14    8   16 1    
    15    9   17 1    
    16   10   11 1    
    17   10   12 1    
    18   10   18 1    
    19   11   19 1    
    20   11   20 1    
    21   11   21 1    
    22   12   22 1    
    23   12   23 1    
    24   12   24 1    
@<TRIPOS>SUBSTRUCTURE
     1 ****        1 TEMP              0 ****  ****    0 ROOT 
@<TRIPOS>NORMAL
@<TRIPOS>FF_PBC
FORCE_FIELD_SETUP_FEATURE Force Field Setup information
v1.0  0 0.000000 0.000000 0.000000 0.000000 0.000000 0.000000 NONE 0 0 0 0 1 0 0 0 0 0 0 0 0
