@<TRIPOS>MOLECULE
MOL004985
   60    59     1     1     0
SMALL
GASTEIGER


@<TRIPOS>ATOM
      1 C          -5.200442    9.739677   -0.000295 C.3       1 <1>         0.033283 
      2 C          -3.873289    8.932812    0.000016 C.3       1 <1>        -0.040622 
      3 C          -4.136442    7.402692   -0.000457 C.3       1 <1>        -0.034299 
      4 C          -2.851247    6.609741   -0.000375 C.2       1 <1>        -0.087920 
      5 C          -2.850149    5.270496    0.000430 C.2       1 <1>        -0.087932 
      6 C          -1.563481    4.480047    0.000499 C.3       1 <1>        -0.034761 
      7 C          -1.818343    2.948613   -0.000005 C.3       1 <1>        -0.049616 
      8 C          -0.483579    2.154159    0.000156 C.3       1 <1>        -0.052779 
      9 C          -0.735460    0.621462   -0.000136 C.3       1 <1>        -0.053048 
     10 C           0.600790   -0.171122    0.000071 C.3       1 <1>        -0.053057 
     11 C           0.349908   -1.704151   -0.000153 C.3       1 <1>        -0.053057 
     12 C           1.684721   -2.499135    0.000082 C.3       1 <1>        -0.053057 
     13 C           1.428531   -4.031338   -0.000130 C.3       1 <1>        -0.053057 
     14 C           2.760240   -4.831144    0.000101 C.3       1 <1>        -0.053057 
     15 C           2.499455   -6.362641   -0.000120 C.3       1 <1>        -0.053057 
     16 C           3.829553   -7.165061    0.000112 C.3       1 <1>        -0.053065 
     17 C           3.567148   -8.696100   -0.000111 C.3       1 <1>        -0.053306 
     18 C           4.896529   -9.499152    0.000119 C.3       1 <1>        -0.055911 
     19 C           4.632073  -11.027432   -0.000117 C.3       1 <1>        -0.065276 
     20 C          -4.994553   11.233652    0.000269 C.2       1 <1>         0.259597 
     21 O          -5.945305   11.999970    0.001415 O.2       1 <1>        -0.265177 
     22 O          -3.731625   11.666564   -0.000584 O.3       1 <1>        -0.331267 
     23 H          -5.789919    9.480679   -0.893711 H         1 <1>         0.036610 
     24 H          -5.790611    9.480109    0.892508 H         1 <1>         0.036610 
     25 H          -3.286450    9.198910    0.895162 H         1 <1>         0.027297 
     26 H          -3.285840    9.199313   -0.894603 H         1 <1>         0.027297 
     27 H          -4.718972    7.129075   -0.894984 H         1 <1>         0.030743 
     28 H          -4.719523    7.128609    0.893581 H         1 <1>         0.030743 
     29 H          -1.895512    7.136250   -0.001005 H         1 <1>         0.056896 
     30 H          -3.804639    4.742138    0.001064 H         1 <1>         0.056896 
     31 H          -0.981407    4.755456    0.894828 H         1 <1>         0.030732 
     32 H          -0.980847    4.755959   -0.893307 H         1 <1>         0.030732 
     33 H          -2.404803    2.679973   -0.894321 H         1 <1>         0.026822 
     34 H          -2.405288    2.679475    0.893853 H         1 <1>         0.026822 
     35 H           0.101847    2.426803    0.893696 H         1 <1>         0.026538 
     36 H           0.102266    2.427116   -0.893032 H         1 <1>         0.026538 
     37 H           1.186078    0.101878    0.893665 H         1 <1>         0.026528 
     38 H           1.186516    0.102100   -0.893182 H         1 <1>         0.026528 
     39 H          -0.235694   -1.976617   -0.893717 H         1 <1>         0.026528 
     40 H          -0.236139   -1.976821    0.893059 H         1 <1>         0.026528 
     41 H           2.270739   -2.227664    0.893590 H         1 <1>         0.026528 
     42 H           2.271188   -2.227472   -0.893085 H         1 <1>         0.026528 
     43 H           0.842086   -4.301821   -0.893618 H         1 <1>         0.026528 
     44 H           0.841637   -4.302011    0.893004 H         1 <1>         0.026528 
     45 H           3.347063   -4.561506    0.893585 H         1 <1>         0.026528 
     46 H           3.347514   -4.561311   -0.893026 H         1 <1>         0.026528 
     47 H           1.912302   -6.631910   -0.893540 H         1 <1>         0.026528 
     48 H           1.911849   -6.632107    0.892964 H         1 <1>         0.026528 
     49 H           4.416833   -6.896466    0.893611 H         1 <1>         0.026528 
     50 H           4.417285   -6.896265   -0.893023 H         1 <1>         0.026528 
     51 H           2.980226   -8.965606   -0.893609 H         1 <1>         0.026520 
     52 H           2.979775   -8.965810    0.893039 H         1 <1>         0.026520 
     53 H           5.486880   -9.236106    0.893777 H         1 <1>         0.026265 
     54 H           5.487326   -9.235904   -0.893178 H         1 <1>         0.026265 
     55 H           5.586320  -11.577743    0.000060 H         1 <1>         0.022978 
     56 H           4.060494  -11.318374   -0.895296 H         1 <1>         0.022978 
     57 H           4.060053  -11.318581    0.894720 H         1 <1>         0.022978 
     58 H          -3.683239   12.616308   -0.000147 H         1 <1>         0.220208 
     59 H          -1.320988    0.348858   -0.893680 H         1 <1>         0.026529 
     60 H          -1.321438    0.348576    0.893012 H         1 <1>         0.026529 
@<TRIPOS>BOND
     1    1    2 1    
     2    1   20 1    
     3    1   23 1    
     4    1   24 1    
     5    2    3 1    
     6    2   25 1    
     7    2   26 1    
     8    3    4 1    
     9    3   27 1    
    10    3   28 1    
    11    4    5 2    
    12    4   29 1    
    13    5    6 1    
    14    5   30 1    
    15    6    7 1    
    16    6   31 1    
    17    6   32 1    
    18    7    8 1    
    19    7   33 1    
    20    7   34 1    
    21    8    9 1    
    22    8   35 1    
    23    8   36 1    
    24    9   10 1    
    25    9   59 1    
    26    9   60 1    
    27   10   11 1    
    28   10   37 1    
    29   10   38 1    
    30   11   12 1    
    31   11   39 1    
    32   11   40 1    
    33   12   13 1    
    34   12   41 1    
    35   12   42 1    
    36   13   14 1    
    37   13   43 1    
    38   13   44 1    
    39   14   15 1    
    40   14   45 1    
    41   14   46 1    
    42   15   16 1    
    43   15   47 1    
    44   15   48 1    
    45   16   17 1    
    46   16   49 1    
    47   16   50 1    
    48   17   18 1    
    49   17   51 1    
    50   17   52 1    
    51   18   19 1    
    52   18   53 1    
    53   18   54 1    
    54   19   55 1    
    55   19   56 1    
    56   19   57 1    
    57   20   21 2    
    58   20   22 1    
    59   22   58 1    
@<TRIPOS>SUBSTRUCTURE
     1 ****        1 TEMP              0 ****  ****    0 ROOT 
@<TRIPOS>NORMAL
@<TRIPOS>FF_PBC
FORCE_FIELD_SETUP_FEATURE Force Field Setup information
v1.0  0 0.000000 0.000000 0.000000 0.000000 0.000000 0.000000 NONE 0 0 0 0 1 0 0 0 0 0 0 0 0
