@<TRIPOS>MOLECULE
MOL013277
   47    49     1     1     0
SMALL
GASTEIGER


@<TRIPOS>ATOM
      1 C           0.647389   -0.968252    0.014902 C.2       1 <1>         0.094054 
      2 C           0.643712   -2.310385    0.002687 C.2       1 <1>         0.016922 
      3 C          -0.584810   -3.105046    0.021510 C.2       1 <1>         0.193602 
      4 C          -1.891909   -2.358588    0.033113 C.ar      1 <1>         0.084741 
      5 C          -1.790651   -0.882677    0.040051 C.ar      1 <1>         0.128739 
      6 O          -0.516778   -0.275869    0.036145 O.3       1 <1>        -0.305124 
      7 C          -3.016253   -0.103853    0.051820 C.ar      1 <1>         0.137043 
      8 C          -4.326853   -0.819858    0.048709 C.ar      1 <1>         0.110704 
      9 C          -4.367970   -2.217570    0.043189 C.ar      1 <1>         0.001740 
     10 C          -3.126331   -3.025571    0.037233 C.ar      1 <1>         0.091720 
     11 O          -0.522729   -4.324000    0.026921 O.2       1 <1>        -0.287016 
     12 C           1.948726   -0.177182    0.003363 C.ar      1 <1>         0.008193 
     13 C           1.889682    1.303508   -0.079985 C.ar      1 <1>        -0.019515 
     14 C           3.024996    2.122827   -0.093494 C.ar      1 <1>         0.106288 
     15 C           4.379394    1.505530   -0.033716 C.ar      1 <1>         0.105689 
     16 C           4.467006    0.096116    0.045416 C.ar      1 <1>        -0.028512 
     17 C           3.250589   -0.750365    0.070364 C.ar      1 <1>        -0.049511 
     18 O           5.529902    2.309718   -0.057158 O.3       1 <1>        -0.345341 
     19 C           6.860381    1.769868   -0.009625 C.3       1 <1>         0.043135 
     20 O           2.822846    3.510871   -0.163901 O.3       1 <1>        -0.345322 
     21 C           3.905865    4.452726   -0.140631 C.3       1 <1>         0.043136 
     22 O          -3.018251    1.298939    0.066771 O.3       1 <1>        -0.342923 
     23 C          -1.840579    2.106208    0.013275 C.3       1 <1>         0.043243 
     24 O          -5.560065   -0.147359    0.049689 O.3       1 <1>        -0.345170 
     25 C          -5.685847    1.282855    0.032505 C.3       1 <1>         0.043138 
     26 O          -3.154499   -4.425413    0.034718 O.3       1 <1>        -0.347034 
     27 C          -4.389597   -5.158594    0.028730 C.3       1 <1>         0.043055 
     28 H           1.532872   -2.931143   -0.023402 H         1 <1>         0.068219 
     29 H          -5.341298   -2.690907    0.042222 H         1 <1>         0.067023 
     30 H           0.934029    1.796623   -0.132678 H         1 <1>         0.065082 
     31 H           5.426516   -0.403865    0.089742 H         1 <1>         0.064430 
     32 H           3.410158   -1.816405    0.143078 H         1 <1>         0.062505 
     33 H           7.564056    2.614639   -0.043600 H         1 <1>         0.052871 
     34 H           7.056491    1.121594   -0.877524 H         1 <1>         0.052871 
     35 H           7.029735    1.216569    0.926864 H         1 <1>         0.052871 
     36 H           3.470732    5.461962   -0.180617 H         1 <1>         0.052871 
     37 H           4.486590    4.365114    0.790328 H         1 <1>         0.052871 
     38 H           4.559213    4.326205   -1.017161 H         1 <1>         0.052871 
     39 H          -2.153310    3.160567    0.018440 H         1 <1>         0.052872 
     40 H          -1.215461    1.926727    0.900484 H         1 <1>         0.052872 
     41 H          -1.293807    1.910408   -0.920925 H         1 <1>         0.052872 
     42 H          -6.759648    1.519578    0.022945 H         1 <1>         0.052871 
     43 H          -5.245188    1.731805    0.935396 H         1 <1>         0.052871 
     44 H          -5.232692    1.711630   -0.874150 H         1 <1>         0.052871 
     45 H          -4.140973   -6.230139    0.027304 H         1 <1>         0.052870 
     46 H          -4.975888   -4.937458   -0.876311 H         1 <1>         0.052870 
     47 H          -4.983326   -4.942070    0.930031 H         1 <1>         0.052870 
@<TRIPOS>BOND
     1    1    2 2    
     2    1    6 1    
     3    1   12 1    
     4    2    3 1    
     5    2   28 1    
     6    3    4 1    
     7    3   11 2    
     8    4    5 1    
     9    4   10 2    
    10    5    6 1    
    11    5    7 2    
    12    7    8 1    
    13    7   22 1    
    14    8    9 2    
    15    8   24 1    
    16    9   10 1    
    17    9   29 1    
    18   10   26 1    
    19   12   13 1    
    20   12   17 2    
    21   13   14 2    
    22   13   30 1    
    23   14   15 1    
    24   14   20 1    
    25   15   16 2    
    26   15   18 1    
    27   16   17 1    
    28   16   31 1    
    29   17   32 1    
    30   18   19 1    
    31   19   33 1    
    32   19   34 1    
    33   19   35 1    
    34   20   21 1    
    35   21   36 1    
    36   21   37 1    
    37   21   38 1    
    38   22   23 1    
    39   23   39 1    
    40   23   40 1    
    41   23   41 1    
    42   24   25 1    
    43   25   42 1    
    44   25   43 1    
    45   25   44 1    
    46   26   27 1    
    47   27   45 1    
    48   27   46 1    
    49   27   47 1    
@<TRIPOS>SUBSTRUCTURE
     1 ****        1 TEMP              0 ****  ****    0 ROOT 
@<TRIPOS>NORMAL
@<TRIPOS>FF_PBC
FORCE_FIELD_SETUP_FEATURE Force Field Setup information
v1.0  0 0.000000 0.000000 0.000000 0.000000 0.000000 0.000000 NONE 0 0 0 0 1 0 0 0 0 0 0 0 0
