@<TRIPOS>MOLECULE
MOL005828
   51    53     1     1     0
SMALL
GASTEIGER


@<TRIPOS>ATOM
      1 C          -0.296996    2.503646    0.250997 C.ar      1 <1>         0.087285 
      2 C          -0.711808    1.091414    0.183420 C.ar      1 <1>         0.128913 
      3 C          -1.235692    3.545495    0.247307 C.ar      1 <1>         0.121670 
      4 C           1.192749    2.726464    0.320208 C.2       1 <1>         0.193688 
      5 C          -2.077166    0.759721    0.115419 C.ar      1 <1>         0.139626 
      6 O           0.250170    0.076846    0.184034 O.3       1 <1>        -0.305121 
      7 C          -2.691293    3.219718    0.194037 C.ar      1 <1>         0.139096 
      8 O          -0.756979    4.864117    0.297232 O.3       1 <1>        -0.344468 
      9 C           2.061680    1.541981    0.323033 C.2       1 <1>         0.016923 
     10 O           1.686387    3.840984    0.373091 O.2       1 <1>        -0.287014 
     11 C          -3.109211    1.835123    0.137365 C.ar      1 <1>         0.140849 
     12 O          -2.445332   -0.586538    0.030353 O.3       1 <1>        -0.342861 
     13 C           1.572743    0.294301    0.250982 C.2       1 <1>         0.094054 
     14 O          -3.622455    4.273538    0.205878 O.3       1 <1>        -0.342873 
     15 C          -1.603913    6.022838    0.264945 C.3       1 <1>         0.043165 
     16 O          -4.480069    1.529310    0.107931 O.3       1 <1>        -0.342828 
     17 C          -2.160248   -1.218153   -1.230539 C.3       1 <1>         0.043244 
     18 C           2.440493   -0.952290    0.240938 C.ar      1 <1>         0.008193 
     19 C          -5.049192    4.110312    0.183527 C.3       1 <1>         0.043244 
     20 C          -5.006798    0.215912    0.352985 C.3       1 <1>         0.043244 
     21 C           1.756300   -2.267851    0.331218 C.ar      1 <1>        -0.019515 
     22 C           3.859422   -0.951588    0.144122 C.ar      1 <1>        -0.049511 
     23 C           2.472018   -3.470954    0.318046 C.ar      1 <1>         0.106288 
     24 C           4.622546   -2.223581    0.144978 C.ar      1 <1>        -0.028512 
     25 C           3.953578   -3.466067    0.229437 C.ar      1 <1>         0.105689 
     26 O           1.771685   -4.677207    0.392232 O.3       1 <1>        -0.345322 
     27 O           4.644683   -4.688089    0.234502 O.3       1 <1>        -0.345341 
     28 C           1.754633   -5.426813   -0.833529 C.3       1 <1>         0.043136 
     29 C           6.077838   -4.761469    0.172625 C.3       1 <1>         0.043135 
     30 H           3.121866    1.766779    0.390812 H         1 <1>         0.068219 
     31 H          -0.951043    6.907308    0.295392 H         1 <1>         0.052871 
     32 H          -2.266871    6.057432    1.142689 H         1 <1>         0.052871 
     33 H          -2.190768    6.061351   -0.665435 H         1 <1>         0.052871 
     34 H          -2.528068   -2.253587   -1.181802 H         1 <1>         0.052872 
     35 H          -2.679583   -0.697614   -2.050218 H         1 <1>         0.052872 
     36 H          -1.082321   -1.244161   -1.448485 H         1 <1>         0.052872 
     37 H          -5.494007    5.115755    0.207913 H         1 <1>         0.052872 
     38 H          -5.380477    3.613574   -0.741108 H         1 <1>         0.052872 
     39 H          -5.402831    3.559576    1.068535 H         1 <1>         0.052872 
     40 H          -6.099211    0.311963    0.436199 H         1 <1>         0.052872 
     41 H          -4.795119   -0.467270   -0.481570 H         1 <1>         0.052872 
     42 H          -4.621436   -0.198588    1.297309 H         1 <1>         0.052872 
     43 H           0.675997   -2.319640    0.407578 H         1 <1>         0.065082 
     44 H           4.423984   -0.032408    0.063738 H         1 <1>         0.062505 
     45 H           5.701821   -2.168702    0.079409 H         1 <1>         0.064430 
     46 H           1.161233   -6.338163   -0.669667 H         1 <1>         0.052871 
     47 H           1.285043   -4.839909   -1.638278 H         1 <1>         0.052871 
     48 H           2.768721   -5.721238   -1.143568 H         1 <1>         0.052871 
     49 H           6.358596   -5.824700    0.198624 H         1 <1>         0.052871 
     50 H           6.456557   -4.326345   -0.764893 H         1 <1>         0.052871 
     51 H           6.537143   -4.260667    1.038685 H         1 <1>         0.052871 
@<TRIPOS>BOND
     1    1    2 1    
     2    1    3 2    
     3    1    4 1    
     4    2    5 2    
     5    2    6 1    
     6    3    7 1    
     7    3    8 1    
     8    4    9 1    
     9    4   10 2    
    10    5   11 1    
    11    5   12 1    
    12    6   13 1    
    13    7   11 2    
    14    7   14 1    
    15    8   15 1    
    16    9   13 2    
    17    9   30 1    
    18   11   16 1    
    19   12   17 1    
    20   13   18 1    
    21   14   19 1    
    22   15   31 1    
    23   15   32 1    
    24   15   33 1    
    25   16   20 1    
    26   17   34 1    
    27   17   35 1    
    28   17   36 1    
    29   18   21 1    
    30   18   22 2    
    31   19   37 1    
    32   19   38 1    
    33   19   39 1    
    34   20   40 1    
    35   20   41 1    
    36   20   42 1    
    37   21   23 2    
    38   21   43 1    
    39   22   24 1    
    40   22   44 1    
    41   23   25 1    
    42   23   26 1    
    43   24   25 2    
    44   24   45 1    
    45   25   27 1    
    46   26   28 1    
    47   27   29 1    
    48   28   46 1    
    49   28   47 1    
    50   28   48 1    
    51   29   49 1    
    52   29   50 1    
    53   29   51 1    
@<TRIPOS>SUBSTRUCTURE
     1 ****        1 TEMP              0 ****  ****    0 ROOT 
@<TRIPOS>NORMAL
@<TRIPOS>FF_PBC
FORCE_FIELD_SETUP_FEATURE Force Field Setup information
v1.0  0 0.000000 0.000000 0.000000 0.000000 0.000000 0.000000 NONE 0 0 0 0 1 0 0 0 0 0 0 0 0
