@<TRIPOS>MOLECULE
MOL002119
   26    25     1     1     0
SMALL
GASTEIGER


@<TRIPOS>ATOM
      1 C           1.713869    3.351794   -0.000144 C.2       1 <1>        -0.095770 
      2 C           1.757889    2.010721   -0.000130 C.2       1 <1>        -0.057797 
      3 C           0.489692    1.236697   -0.000010 C.2       1 <1>        -0.062516 
      4 C           0.389277   -0.101749   -0.000146 C.2       1 <1>        -0.074420 
      5 C          -0.930309   -0.864981    0.000029 C.3       1 <1>         0.001152 
      6 C          -0.677812   -2.367493   -0.000105 C.2       1 <1>        -0.081729 
      7 C          -1.645536   -3.294807   -0.000085 C.2       1 <1>        -0.101830 
      8 C          -1.727607   -0.498540    1.285001 C.3       1 <1>        -0.052858 
      9 C          -1.728087   -0.498341   -1.284590 C.3       1 <1>        -0.052858 
     10 C           3.094403    1.300024   -0.000224 C.3       1 <1>        -0.040268 
     11 H           2.617461    3.960602   -0.000223 H         1 <1>         0.053740 
     12 H           0.770736    3.897648   -0.000075 H         1 <1>         0.053740 
     13 H          -0.428216    1.821708    0.000212 H         1 <1>         0.061719 
     14 H           1.315719   -0.671233   -0.000393 H         1 <1>         0.058057 
     15 H           0.342089   -2.755234   -0.000220 H         1 <1>         0.057474 
     16 H          -1.394696   -4.356377   -0.000186 H         1 <1>         0.053201 
     17 H          -2.705534   -3.048029    0.000033 H         1 <1>         0.053201 
     18 H          -2.685319   -1.036559    1.331491 H         1 <1>         0.024093 
     19 H          -1.954367    0.576110    1.330263 H         1 <1>         0.024093 
     20 H          -1.136078   -0.765829    2.174299 H         1 <1>         0.024093 
     21 H          -2.685879   -1.036241   -1.330744 H         1 <1>         0.024093 
     22 H          -1.136946   -0.765614   -2.174150 H         1 <1>         0.024093 
     23 H          -1.954744    0.576339   -1.329665 H         1 <1>         0.024093 
     24 H           3.949670    1.992708   -0.000151 H         1 <1>         0.027736 
     25 H           3.175150    0.668587   -0.897675 H         1 <1>         0.027736 
     26 H           3.175170    0.668391    0.897089 H         1 <1>         0.027736 
@<TRIPOS>BOND
     1    1    2 2    
     2    1   11 1    
     3    1   12 1    
     4    2    3 1    
     5    2   10 1    
     6    3    4 2    
     7    3   13 1    
     8    4    5 1    
     9    4   14 1    
    10    5    6 1    
    11    5    8 1    
    12    5    9 1    
    13    6    7 2    
    14    6   15 1    
    15    7   16 1    
    16    7   17 1    
    17    8   18 1    
    18    8   19 1    
    19    8   20 1    
    20    9   21 1    
    21    9   22 1    
    22    9   23 1    
    23   10   24 1    
    24   10   25 1    
    25   10   26 1    
@<TRIPOS>SUBSTRUCTURE
     1 ****        1 TEMP              0 ****  ****    0 ROOT 
@<TRIPOS>NORMAL
@<TRIPOS>FF_PBC
FORCE_FIELD_SETUP_FEATURE Force Field Setup information
v1.0  0 0.000000 0.000000 0.000000 0.000000 0.000000 0.000000 NONE 0 0 0 0 1 0 0 0 0 0 0 0 0
