@<TRIPOS>MOLECULE
MOL002185
   29    30     1     1     0
SMALL
GASTEIGER


@<TRIPOS>ATOM
      1 C           0.218331   -0.283166   -0.234029 C.3       1 <1>         0.072728 
      2 O           0.192565    0.082209    1.146317 O.3       1 <1>        -0.366969 
      3 C          -1.231730    0.084822   -0.651059 C.3       1 <1>        -0.020883 
      4 C           1.196071    0.793048   -0.783403 C.3       1 <1>        -0.020883 
      5 C           0.670575   -1.751741   -0.496965 C.3       1 <1>        -0.017503 
      6 C          -0.210097    1.446593    1.052861 C.3       1 <1>         0.067671 
      7 C          -1.532844    1.304684    0.259080 C.3       1 <1>        -0.021368 
      8 C           0.906620    2.006336    0.138117 C.3       1 <1>        -0.021368 
      9 C          -0.140390   -2.791003    0.327690 C.3       1 <1>        -0.060051 
     10 C           0.626340   -2.100505   -2.009034 C.3       1 <1>        -0.060051 
     11 C          -0.352206    2.178032    2.408651 C.3       1 <1>        -0.035795 
     12 H          -1.938248   -0.726321   -0.423663 H         1 <1>         0.029389 
     13 H          -1.310623    0.322816   -1.723500 H         1 <1>         0.029389 
     14 H           2.242829    0.469627   -0.663194 H         1 <1>         0.029389 
     15 H           1.020841    1.018616   -1.847077 H         1 <1>         0.029389 
     16 H           1.715583   -1.831298   -0.150449 H         1 <1>         0.032315 
     17 H          -1.781045    2.218790   -0.303163 H         1 <1>         0.029371 
     18 H          -2.362992    1.078520    0.948443 H         1 <1>         0.029371 
     19 H           1.796326    2.255548    0.739578 H         1 <1>         0.029371 
     20 H           0.586471    2.907113   -0.409077 H         1 <1>         0.029371 
     21 H           0.335223   -3.781839    0.255001 H         1 <1>         0.023322 
     22 H          -0.166741   -2.499975    1.389186 H         1 <1>         0.023322 
     23 H          -1.172472   -2.890430   -0.036551 H         1 <1>         0.023322 
     24 H           0.999051   -3.123436   -2.174175 H         1 <1>         0.023322 
     25 H           1.255765   -1.408458   -2.588520 H         1 <1>         0.023322 
     26 H          -0.404672   -2.040969   -2.388801 H         1 <1>         0.023322 
     27 H          -1.104637    1.673540    3.033023 H         1 <1>         0.025729 
     28 H           0.607874    2.168672    2.945907 H         1 <1>         0.025729 
     29 H          -0.662068    3.219977    2.238906 H         1 <1>         0.025729 
@<TRIPOS>BOND
     1    1    2 1    
     2    1    3 1    
     3    1    4 1    
     4    1    5 1    
     5    2    6 1    
     6    3    7 1    
     7    3   12 1    
     8    3   13 1    
     9    4    8 1    
    10    4   14 1    
    11    4   15 1    
    12    5    9 1    
    13    5   10 1    
    14    5   16 1    
    15    6    7 1    
    16    6    8 1    
    17    6   11 1    
    18    7   17 1    
    19    7   18 1    
    20    8   19 1    
    21    8   20 1    
    22    9   21 1    
    23    9   22 1    
    24    9   23 1    
    25   10   24 1    
    26   10   25 1    
    27   10   26 1    
    28   11   27 1    
    29   11   28 1    
    30   11   29 1    
@<TRIPOS>SUBSTRUCTURE
     1 ****        1 TEMP              0 ****  ****    0 ROOT 
@<TRIPOS>NORMAL
@<TRIPOS>FF_PBC
FORCE_FIELD_SETUP_FEATURE Force Field Setup information
v1.0  0 0.000000 0.000000 0.000000 0.000000 0.000000 0.000000 NONE 0 0 0 0 1 0 0 0 0 0 0 0 0
