@<TRIPOS>MOLECULE
MOL006651
   54    59     1     1     0
SMALL
GASTEIGER


@<TRIPOS>ATOM
      1 O           3.363365    1.680754   -1.696522 O.3       1 <1>        -0.335749 
      2 O          -3.532085    0.398363   -0.096656 O.3       1 <1>        -0.340168 
      3 O           2.617230    1.365340    2.235647 O.3       1 <1>        -0.343558 
      4 O          -1.857990   -0.368064    1.322215 O.3       1 <1>        -0.312468 
      5 O          -6.111421   -2.745082    1.037769 O.3       1 <1>        -0.386401 
      6 O          -6.829242   -0.957055   -1.172654 O.3       1 <1>        -0.386488 
      7 O          -3.275369   -2.863715    1.658053 O.3       1 <1>        -0.384091 
      8 O           6.506857   -2.202175    0.746936 O.3       1 <1>        -0.315041 
      9 O           5.723666   -2.672684   -1.476779 O.3       1 <1>        -0.314968 
     10 O          -4.118368    2.183600   -2.252735 O.3       1 <1>        -0.392366 
     11 C           4.079724    2.342940    0.555131 C.3       1 <1>         0.041483 
     12 C           2.942498    2.408026   -0.512259 C.3       1 <1>         0.101494 
     13 C           4.632457    0.970570    0.218914 C.ar      1 <1>        -0.006695 
     14 C           3.517657    2.450968    1.988400 C.3       1 <1>         0.063813 
     15 C          -5.125466   -1.986312    0.311125 C.3       1 <1>         0.114074 
     16 C          -5.719863   -0.686554   -0.295515 C.3       1 <1>         0.111896 
     17 C           1.683614    1.692646   -0.006077 C.ar      1 <1>         0.012402 
     18 C          -3.908494   -1.647294    1.212120 C.3       1 <1>         0.134509 
     19 C          -4.603328    0.112839   -1.018121 C.3       1 <1>         0.113017 
     20 C          -2.892625   -0.786752    0.419459 C.3       1 <1>         0.193644 
     21 C           4.147113    0.684590   -1.136141 C.ar      1 <1>         0.083201 
     22 C           1.574545    1.209855    1.321232 C.ar      1 <1>         0.084303 
     23 C           5.424016    0.074172    0.935140 C.ar      1 <1>        -0.022973 
     24 C           0.552965    1.490016   -0.943435 C.ar      1 <1>        -0.051177 
     25 C          -5.148971    1.461230   -1.556286 C.3       1 <1>         0.073015 
     26 C          -0.723319    0.310976    0.862368 C.ar      1 <1>         0.081927 
     27 C           0.340043    0.513997    1.748730 C.ar      1 <1>        -0.001187 
     28 C           4.464094   -0.502752   -1.783572 C.ar      1 <1>         0.001299 
     29 C           5.741529   -1.182604    0.217215 C.ar      1 <1>         0.109458 
     30 C          -0.610019    0.817797   -0.530497 C.ar      1 <1>        -0.031070 
     31 C           5.309309   -1.441884   -1.008694 C.ar      1 <1>         0.111488 
     32 C           6.742724   -2.960454   -0.475102 C.3       1 <1>         0.160032 
     33 H           4.852658    3.102182    0.352591 H         1 <1>         0.040100 
     34 H           2.661909    3.443953   -0.759614 H         1 <1>         0.065909 
     35 H          -4.773355   -2.635218   -0.506937 H         1 <1>         0.064758 
     36 H           4.333899    2.394453    2.724984 H         1 <1>         0.057187 
     37 H           2.994406    3.411968    2.118295 H         1 <1>         0.057187 
     38 H          -6.105271   -0.066719    0.529909 H         1 <1>         0.064673 
     39 H          -4.238804   -1.048730    2.078207 H         1 <1>         0.067108 
     40 H          -4.221625   -0.457205   -1.882136 H         1 <1>         0.064668 
     41 H          -2.447988   -1.411801   -0.373495 H         1 <1>         0.094159 
     42 H           5.782037    0.274231    1.938070 H         1 <1>         0.064777 
     43 H           0.628726    1.862211   -1.960512 H         1 <1>         0.062270 
     44 H          -5.541097    2.070410   -0.724948 H         1 <1>         0.058370 
     45 H          -5.969301    1.280528   -2.268633 H         1 <1>         0.058370 
     46 H           0.262601    0.152214    2.767422 H         1 <1>         0.066928 
     47 H           4.115657   -0.727746   -2.784634 H         1 <1>         0.067012 
     48 H          -1.409445    0.681392   -1.247682 H         1 <1>         0.064341 
     49 H          -6.501871   -2.265531    1.761263 H         1 <1>         0.210005 
     50 H          -6.603589   -1.520668   -1.905863 H         1 <1>         0.210004 
     51 H          -3.870681   -3.419863    2.152353 H         1 <1>         0.210111 
     52 H           7.712044   -2.628692   -0.886392 H         1 <1>         0.087950 
     53 H           6.809913   -4.040030   -0.269589 H         1 <1>         0.087950 
     54 H          -3.380166    2.382966   -1.683869 H         1 <1>         0.209508 
@<TRIPOS>BOND
     1   12    1 1    
     2    1   21 1    
     3    2   19 1    
     4   20    2 1    
     5    3   14 1    
     6   22    3 1    
     7    4   20 1    
     8   26    4 1    
     9   15    5 1    
    10    5   49 1    
    11   16    6 1    
    12    6   50 1    
    13   18    7 1    
    14    7   51 1    
    15   29    8 1    
    16    8   32 1    
    17    9   31 1    
    18   32    9 1    
    19   25   10 1    
    20   10   54 1    
    21   12   11 1    
    22   11   13 1    
    23   14   11 1    
    24   11   33 1    
    25   17   12 1    
    26   12   34 1    
    27   13   21 1    
    28   13   23 2    
    29   14   36 1    
    30   14   37 1    
    31   15   16 1    
    32   18   15 1    
    33   15   35 1    
    34   19   16 1    
    35   16   38 1    
    36   22   17 2    
    37   17   24 1    
    38   20   18 1    
    39   18   39 1    
    40   19   25 1    
    41   19   40 1    
    42   20   41 1    
    43   21   28 2    
    44   27   22 1    
    45   23   29 1    
    46   23   42 1    
    47   24   30 2    
    48   24   43 1    
    49   25   44 1    
    50   25   45 1    
    51   26   27 2    
    52   26   30 1    
    53   27   46 1    
    54   28   31 1    
    55   28   47 1    
    56   29   31 2    
    57   30   48 1    
    58   32   52 1    
    59   32   53 1    
@<TRIPOS>SUBSTRUCTURE
     1 ****        5 TEMP              0 ****  ****    0 ROOT 
@<TRIPOS>NORMAL
@<TRIPOS>FF_PBC
FORCE_FIELD_SETUP_FEATURE Force Field Setup information
v1.0  0 0.000000 0.000000 0.000000 0.000000 0.000000 0.000000 NONE 0 0 0 0 1 0 0 0 0 0 0 0 0
