@<TRIPOS>MOLECULE
MOL013377
   98    99     1     1     0
SMALL
GASTEIGER


@<TRIPOS>ATOM
      1 O          14.151658   -1.984871   -0.953065 O.3       1 <1>        -0.387742 
      2 O         -15.036041    0.536099   -0.667874 O.3       1 <1>        -0.391446 
      3 C          11.853466    0.204074   -1.072601 C.3       1 <1>        -0.022318 
      4 C          11.080119    0.067366    0.274610 C.3       1 <1>         0.003498 
      5 C          11.974450   -1.205105   -1.718693 C.3       1 <1>        -0.017246 
      6 C          12.736508   -2.199040   -0.804736 C.3       1 <1>         0.074127 
      7 C          11.609470   -1.053335    1.141530 C.2       1 <1>        -0.066807 
      8 C         -11.354069    0.069154   -1.649021 C.3       1 <1>        -0.007562 
      9 C          11.095850    1.149880   -2.053721 C.3       1 <1>        -0.058894 
     10 C          13.263395    0.814190   -0.803355 C.3       1 <1>        -0.058894 
     11 C         -12.817839    0.597231   -1.729580 C.3       1 <1>        -0.017396 
     12 C          12.346761   -2.059427    0.647966 C.2       1 <1>        -0.056326 
     13 C         -13.686616    0.043685   -0.577221 C.3       1 <1>         0.059700 
     14 C         -10.814810    0.113792   -0.227267 C.2       1 <1>        -0.042561 
     15 C           9.601990   -0.193795    0.073188 C.2       1 <1>        -0.076165 
     16 C         -13.084419    0.533949    0.758353 C.3       1 <1>        -0.005275 
     17 C         -11.589070    0.334779    0.850194 C.2       1 <1>        -0.066508 
     18 C         -10.484235    0.944518   -2.601394 C.3       1 <1>        -0.055710 
     19 C         -11.262426   -1.413698   -2.121754 C.3       1 <1>        -0.055710 
     20 C          11.246863   -0.977775    2.608555 C.3       1 <1>        -0.043132 
     21 C           8.684128    0.781733    0.115278 C.2       1 <1>        -0.062184 
     22 C          -9.367833   -0.123375   -0.053343 C.2       1 <1>        -0.057856 
     23 C         -11.033888    0.412741    2.258679 C.3       1 <1>        -0.043138 
     24 C           7.225860    0.610980   -0.094250 C.2       1 <1>        -0.050722 
     25 C          -8.920019   -1.256427    0.506188 C.2       1 <1>        -0.058564 
     26 C           6.708586   -0.529095   -0.945539 C.3       1 <1>        -0.039718 
     27 C          -7.507865   -1.647281    0.746883 C.2       1 <1>        -0.050437 
     28 C           6.389506    1.497929    0.469480 C.2       1 <1>        -0.058838 
     29 C          -7.205742   -3.121577    0.904434 C.3       1 <1>        -0.039709 
     30 C          -6.513566   -0.748191    0.821426 C.2       1 <1>        -0.058829 
     31 C           4.911960    1.503510    0.371893 C.2       1 <1>        -0.061262 
     32 C          -5.085669   -1.067652    1.054645 C.2       1 <1>        -0.061262 
     33 C           4.174913    2.557432    0.749842 C.2       1 <1>        -0.058829 
     34 C           2.698465    2.654766    0.667667 C.2       1 <1>        -0.050445 
     35 C          -4.098031   -0.234777    0.698785 C.2       1 <1>        -0.058829 
     36 C          -2.643399   -0.480015    0.865102 C.2       1 <1>        -0.050445 
     37 C           2.104366    4.011003    0.356703 C.3       1 <1>        -0.039709 
     38 C           1.906218    1.587463    0.864304 C.2       1 <1>        -0.058837 
     39 C          -1.813411    0.576262    0.904093 C.2       1 <1>        -0.058837 
     40 C          -2.107708   -1.893486    0.961115 C.3       1 <1>        -0.039709 
     41 C           0.429860    1.592335    0.754001 C.2       1 <1>        -0.061502 
     42 C          -0.341094    0.537103    1.052872 C.2       1 <1>        -0.061502 
     43 H          11.214280    1.014282    0.821906 H         1 <1>         0.039327 
     44 H          12.492444   -1.145435   -2.689954 H         1 <1>         0.029865 
     45 H          10.962991   -1.598545   -1.906438 H         1 <1>         0.029865 
     46 H          12.504479   -3.225080   -1.145966 H         1 <1>         0.063770 
     47 H          10.120495    0.734174   -2.347050 H         1 <1>         0.023527 
     48 H          10.926690    2.132563   -1.589132 H         1 <1>         0.023527 
     49 H          11.685378    1.300070   -2.971409 H         1 <1>         0.023527 
     50 H          13.795547    0.274192   -0.007628 H         1 <1>         0.023527 
     51 H          13.877120    0.784878   -1.716307 H         1 <1>         0.023527 
     52 H          13.175406    1.864182   -0.484567 H         1 <1>         0.023527 
     53 H         -12.829686    1.696334   -1.648867 H         1 <1>         0.029849 
     54 H         -13.266376    0.330905   -2.700025 H         1 <1>         0.029849 
     55 H          12.710564   -2.839822    1.316186 H         1 <1>         0.059712 
     56 H         -13.703575   -1.059469   -0.587500 H         1 <1>         0.059648 
     57 H           9.296085   -1.223872   -0.110465 H         1 <1>         0.057825 
     58 H         -13.595186    0.000139    1.576362 H         1 <1>         0.033502 
     59 H         -13.289329    1.609974    0.876025 H         1 <1>         0.033502 
     60 H          -9.464123    0.547881   -2.712078 H         1 <1>         0.023813 
     61 H         -10.414479    1.972959   -2.214209 H         1 <1>         0.023813 
     62 H         -10.935020    0.981170   -3.605654 H         1 <1>         0.023813 
     63 H         -11.796586   -2.092607   -1.442862 H         1 <1>         0.023813 
     64 H         -10.213755   -1.745622   -2.157025 H         1 <1>         0.023813 
     65 H         -11.685478   -1.526130   -3.132010 H         1 <1>         0.023813 
     66 H          10.153997   -0.909081    2.715590 H         1 <1>         0.027455 
     67 H          11.702298   -0.081149    3.053611 H         1 <1>         0.027455 
     68 H          11.589530   -1.854882    3.178423 H         1 <1>         0.027455 
     69 H          14.677979   -2.581600   -0.429777 H         1 <1>         0.210207 
     70 H          -8.699215    0.656220   -0.410544 H         1 <1>         0.062053 
     71 H           9.034454    1.794261    0.318861 H         1 <1>         0.061728 
     72 H         -11.299878   -0.508131    2.799497 H         1 <1>         0.027455 
     73 H          -9.944030    0.543408    2.307484 H         1 <1>         0.027455 
     74 H         -11.485693    1.268482    2.784596 H         1 <1>         0.027455 
     75 H         -15.477157    0.265319   -1.466607 H         1 <1>         0.209790 
     76 H          -9.684347   -1.972578    0.810974 H         1 <1>         0.062029 
     77 H           5.919786   -0.182233   -1.629240 H         1 <1>         0.027753 
     78 H           7.497606   -0.957890   -1.580345 H         1 <1>         0.027753 
     79 H           6.305399   -1.320838   -0.296209 H         1 <1>         0.027753 
     80 H           6.824984    2.302982    1.063427 H         1 <1>         0.062020 
     81 H          -6.364776   -3.412837    0.256940 H         1 <1>         0.027753 
     82 H          -6.949784   -3.334008    1.953475 H         1 <1>         0.027753 
     83 H          -8.064147   -3.750684    0.625023 H         1 <1>         0.027753 
     84 H          -6.736304    0.310415    0.707709 H         1 <1>         0.062020 
     85 H           4.405520    0.628842   -0.029713 H         1 <1>         0.061775 
     86 H          -4.836170   -2.009819    1.536768 H         1 <1>         0.061775 
     87 H           4.694110    3.434778    1.135992 H         1 <1>         0.062020 
     88 H          -4.391868    0.711069    0.239808 H         1 <1>         0.062020 
     89 H           1.402450    4.310293    1.150631 H         1 <1>         0.027753 
     90 H           1.574851    3.975138   -0.607445 H         1 <1>         0.027753 
     91 H           2.877770    4.790507    0.282331 H         1 <1>         0.027753 
     92 H           2.362391    0.633802    1.127171 H         1 <1>         0.062020 
     93 H          -2.250253    1.572409    0.815013 H         1 <1>         0.062020 
     94 H          -2.819886   -2.631579    0.566583 H         1 <1>         0.027753 
     95 H          -1.190205   -2.007597    0.366485 H         1 <1>         0.027753 
     96 H          -1.891291   -2.134474    2.012563 H         1 <1>         0.027753 
     97 H          -0.073561    2.490969    0.401204 H         1 <1>         0.061766 
     98 H           0.144422   -0.368890    1.414911 H         1 <1>         0.061766 
@<TRIPOS>BOND
     1    6    1 1    
     2    1   69 1    
     3   13    2 1    
     4    2   75 1    
     5    4    3 1    
     6    3    5 1    
     7    3    9 1    
     8    3   10 1    
     9    4    7 1    
    10   15    4 1    
    11    4   43 1    
    12    5    6 1    
    13    5   44 1    
    14    5   45 1    
    15   12    6 1    
    16    6   46 1    
    17    7   12 2    
    18    7   20 1    
    19    8   11 1    
    20   14    8 1    
    21    8   18 1    
    22    8   19 1    
    23    9   47 1    
    24    9   48 1    
    25    9   49 1    
    26   10   50 1    
    27   10   51 1    
    28   10   52 1    
    29   11   13 1    
    30   11   53 1    
    31   11   54 1    
    32   12   55 1    
    33   16   13 1    
    34   13   56 1    
    35   14   17 2    
    36   22   14 1    
    37   21   15 2    
    38   15   57 1    
    39   17   16 1    
    40   16   58 1    
    41   16   59 1    
    42   17   23 1    
    43   18   60 1    
    44   18   61 1    
    45   18   62 1    
    46   19   63 1    
    47   19   64 1    
    48   19   65 1    
    49   20   66 1    
    50   20   67 1    
    51   20   68 1    
    52   24   21 1    
    53   21   71 1    
    54   25   22 2    
    55   22   70 1    
    56   23   72 1    
    57   23   73 1    
    58   23   74 1    
    59   24   26 1    
    60   28   24 2    
    61   27   25 1    
    62   25   76 1    
    63   26   77 1    
    64   26   78 1    
    65   26   79 1    
    66   27   29 1    
    67   30   27 2    
    68   31   28 1    
    69   28   80 1    
    70   29   81 1    
    71   29   82 1    
    72   29   83 1    
    73   32   30 1    
    74   30   84 1    
    75   33   31 2    
    76   31   85 1    
    77   35   32 2    
    78   32   86 1    
    79   34   33 1    
    80   33   87 1    
    81   34   37 1    
    82   38   34 2    
    83   36   35 1    
    84   35   88 1    
    85   39   36 2    
    86   36   40 1    
    87   37   89 1    
    88   37   90 1    
    89   37   91 1    
    90   41   38 1    
    91   38   92 1    
    92   42   39 1    
    93   39   93 1    
    94   40   94 1    
    95   40   95 1    
    96   40   96 1    
    97   41   42 2    
    98   41   97 1    
    99   42   98 1    
@<TRIPOS>SUBSTRUCTURE
     1 ****        3 TEMP              0 ****  ****    0 ROOT 
@<TRIPOS>NORMAL
@<TRIPOS>FF_PBC
FORCE_FIELD_SETUP_FEATURE Force Field Setup information
v1.0  0 0.000000 0.000000 0.000000 0.000000 0.000000 0.000000 NONE 0 0 0 0 1 0 0 0 0 0 0 0 0
