@<TRIPOS>MOLECULE
MOL000500
   36    38     1     1     0
SMALL
GASTEIGER


@<TRIPOS>ATOM
      1 C          -0.314350    1.679957   -0.380386 C.3       1 <1>         0.061398 
      2 C          -0.157586    0.361495    0.416383 C.3       1 <1>         0.014533 
      3 C          -1.343310   -0.578737    0.087211 C.3       1 <1>        -0.016206 
      4 C          -2.662614    0.196452    0.145995 C.ar      1 <1>        -0.016591 
      5 C          -2.660462    1.681964    0.146597 C.ar      1 <1>         0.081813 
      6 O          -1.460308    2.395960    0.105484 O.3       1 <1>        -0.343732 
      7 C          -3.873013    2.381797    0.197258 C.ar      1 <1>        -0.001642 
      8 C          -5.166017    1.661356    0.249933 C.ar      1 <1>         0.075043 
      9 C          -5.172169    0.247474    0.251674 C.ar      1 <1>        -0.031521 
     10 C          -3.892830   -0.499327    0.198505 C.ar      1 <1>        -0.053677 
     11 O          -6.353647    2.396325    0.297262 O.3       1 <1>        -0.359750 
     12 C           1.188589   -0.332495    0.139759 C.ar      1 <1>        -0.011921 
     13 C           2.090733   -0.684602    1.267911 C.ar      1 <1>         0.078534 
     14 C           3.330937   -1.318442    1.003674 C.ar      1 <1>        -0.001645 
     15 C           3.730674   -1.631834   -0.386040 C.ar      1 <1>         0.078267 
     16 C           2.882197   -1.307768   -1.446652 C.ar      1 <1>        -0.031264 
     17 C           1.583664   -0.644346   -1.183943 C.ar      1 <1>        -0.053345 
     18 O           4.953942   -2.252392   -0.632304 O.3       1 <1>        -0.347830 
     19 C           6.002382   -1.342447   -1.001027 C.3       1 <1>         0.043027 
     20 O           1.702658   -0.386418    2.577890 O.3       1 <1>        -0.359468 
     21 H           0.569798    2.320490   -0.236114 H         1 <1>         0.057101 
     22 H          -0.440963    1.493574   -1.457932 H         1 <1>         0.057101 
     23 H          -0.222532    0.636359    1.482077 H         1 <1>         0.037526 
     24 H          -1.358324   -1.421119    0.797354 H         1 <1>         0.032055 
     25 H          -1.251325   -0.981825   -0.932574 H         1 <1>         0.032055 
     26 H          -3.865990    3.465467    0.198775 H         1 <1>         0.066918 
     27 H          -6.106541   -0.302129    0.291189 H         1 <1>         0.064330 
     28 H          -3.905050   -1.584412    0.198667 H         1 <1>         0.062187 
     29 H          -7.142114    1.866395    0.328290 H         1 <1>         0.217315 
     30 H           4.004095   -1.583723    1.810747 H         1 <1>         0.066918 
     31 H           3.177073   -1.543796   -2.463307 H         1 <1>         0.064338 
     32 H           0.944091   -0.404157   -2.025341 H         1 <1>         0.062197 
     33 H           6.922608   -1.923130   -1.161705 H         1 <1>         0.052870 
     34 H           5.754657   -0.809655   -1.932229 H         1 <1>         0.052870 
     35 H           6.181876   -0.610200   -0.198332 H         1 <1>         0.052870 
     36 H           2.329473   -0.642012    3.245249 H         1 <1>         0.217326 
@<TRIPOS>BOND
     1    1    2 1    
     2    1    6 1    
     3    1   21 1    
     4    1   22 1    
     5    2    3 1    
     6    2   12 1    
     7    2   23 1    
     8    3    4 1    
     9    3   24 1    
    10    3   25 1    
    11    4    5 1    
    12    4   10 2    
    13    5    6 1    
    14    5    7 2    
    15    7    8 1    
    16    7   26 1    
    17    8    9 2    
    18    8   11 1    
    19    9   10 1    
    20    9   27 1    
    21   10   28 1    
    22   11   29 1    
    23   12   13 1    
    24   12   17 2    
    25   13   14 2    
    26   13   20 1    
    27   14   15 1    
    28   14   30 1    
    29   15   16 2    
    30   15   18 1    
    31   16   17 1    
    32   16   31 1    
    33   17   32 1    
    34   18   19 1    
    35   19   33 1    
    36   19   34 1    
    37   19   35 1    
    38   20   36 1    
@<TRIPOS>SUBSTRUCTURE
     1 ****        1 TEMP              0 ****  ****    0 ROOT 
@<TRIPOS>NORMAL
@<TRIPOS>FF_PBC
FORCE_FIELD_SETUP_FEATURE Force Field Setup information
v1.0  0 0.000000 0.000000 0.000000 0.000000 0.000000 0.000000 NONE 0 0 0 0 1 0 0 0 0 0 0 0 0
