@<TRIPOS>MOLECULE
MOL004994
   50    49     1     1     0
SMALL
GASTEIGER


@<TRIPOS>ATOM
      1 O          -8.897410   -0.705668    0.319801 O.3       1 <1>        -0.318522 
      2 O          -7.881350    0.944497   -0.837658 O.2       1 <1>        -0.264985 
      3 C           4.977634    0.829659   -0.141599 C.3       1 <1>        -0.050468 
      4 C           6.325527    0.301063    0.439139 C.3       1 <1>        -0.044128 
      5 C           3.724608    0.101611    0.420466 C.3       1 <1>        -0.052815 
      6 C           2.410126    0.754986   -0.090010 C.3       1 <1>        -0.053048 
      7 C           1.161303    0.008678    0.454986 C.3       1 <1>        -0.053057 
      8 C          -0.157830    0.630165   -0.081061 C.3       1 <1>        -0.053057 
      9 C          -1.396951   -0.137346    0.456084 C.3       1 <1>        -0.053057 
     10 C          -2.723500    0.457436   -0.091324 C.3       1 <1>        -0.053045 
     11 C           6.560090   -1.230587    0.243758 C.3       1 <1>        -0.053312 
     12 C          -3.951874   -0.333604    0.436641 C.3       1 <1>        -0.052596 
     13 C           7.507124    1.137631   -0.131477 C.3       1 <1>        -0.062423 
     14 C          -5.284702    0.247615   -0.109275 C.3       1 <1>        -0.044055 
     15 C           6.514542   -1.719749   -1.229579 C.3       1 <1>        -0.065034 
     16 C          -6.505681   -0.558721    0.411751 C.3       1 <1>         0.033189 
     17 C          -7.818817   -0.027208   -0.099991 C.2       1 <1>         0.261905 
     18 C         -10.144804   -0.185946   -0.180889 C.3       1 <1>         0.045865 
     19 H           4.984334    0.756901   -1.240144 H         1 <1>         0.026785 
     20 H           4.891438    1.898615    0.115074 H         1 <1>         0.026785 
     21 H           6.308732    0.479701    1.529970 H         1 <1>         0.029804 
     22 H           3.745508    0.133778    1.522214 H         1 <1>         0.026537 
     23 H           3.726582   -0.952347    0.102340 H         1 <1>         0.026537 
     24 H           2.371600    1.809000    0.230973 H         1 <1>         0.026529 
     25 H           2.397904    0.729245   -1.192277 H         1 <1>         0.026529 
     26 H           1.210124   -1.049854    0.150831 H         1 <1>         0.026528 
     27 H           1.164289    0.051269    1.556717 H         1 <1>         0.026528 
     28 H          -0.156190    0.591946   -1.182894 H         1 <1>         0.026528 
     29 H          -0.218136    1.686810    0.227751 H         1 <1>         0.026528 
     30 H          -1.403962   -0.091106    1.557711 H         1 <1>         0.026528 
     31 H          -1.324929   -1.195874    0.155992 H         1 <1>         0.026528 
     32 H          -2.712827    0.419612   -1.193171 H         1 <1>         0.026529 
     33 H          -2.805945    1.512707    0.217143 H         1 <1>         0.026529 
     34 H           5.816343   -1.798279    0.825636 H         1 <1>         0.026521 
     35 H           7.548231   -1.490494    0.659074 H         1 <1>         0.026521 
     36 H          -3.863524   -1.388517    0.128183 H         1 <1>         0.026540 
     37 H          -3.962619   -0.296185    1.538550 H         1 <1>         0.026540 
     38 H           7.397403    2.196216    0.152088 H         1 <1>         0.023242 
     39 H           8.468783    0.778070    0.266386 H         1 <1>         0.023242 
     40 H           7.539588    1.083573   -1.229290 H         1 <1>         0.023242 
     41 H          -5.383528    1.299611    0.206155 H         1 <1>         0.027004 
     42 H          -5.275634    0.215848   -1.211498 H         1 <1>         0.027004 
     43 H           6.712363   -2.802991   -1.263021 H         1 <1>         0.022986 
     44 H           5.526760   -1.545349   -1.680073 H         1 <1>         0.022986 
     45 H           7.278280   -1.218271   -1.841232 H         1 <1>         0.022986 
     46 H          -6.530959   -0.526284    1.512193 H         1 <1>         0.036606 
     47 H          -6.419228   -1.610077    0.095590 H         1 <1>         0.036606 
     48 H         -10.308604    0.851886    0.151104 H         1 <1>         0.052962 
     49 H         -10.184641   -0.230942   -1.281143 H         1 <1>         0.052962 
     50 H         -10.955973   -0.810727    0.221206 H         1 <1>         0.052962 
@<TRIPOS>BOND
     1   17    1 1    
     2    1   18 1    
     3   17    2 2    
     4    3    4 1    
     5    5    3 1    
     6    3   19 1    
     7    3   20 1    
     8    4   11 1    
     9    4   13 1    
    10    4   21 1    
    11    6    5 1    
    12    5   22 1    
    13    5   23 1    
    14    7    6 1    
    15    6   24 1    
    16    6   25 1    
    17    8    7 1    
    18    7   26 1    
    19    7   27 1    
    20    9    8 1    
    21    8   28 1    
    22    8   29 1    
    23   10    9 1    
    24    9   30 1    
    25    9   31 1    
    26   12   10 1    
    27   10   32 1    
    28   10   33 1    
    29   11   15 1    
    30   11   34 1    
    31   11   35 1    
    32   14   12 1    
    33   12   36 1    
    34   12   37 1    
    35   13   38 1    
    36   13   39 1    
    37   13   40 1    
    38   16   14 1    
    39   14   41 1    
    40   14   42 1    
    41   15   43 1    
    42   15   44 1    
    43   15   45 1    
    44   16   17 1    
    45   16   46 1    
    46   16   47 1    
    47   18   48 1    
    48   18   49 1    
    49   18   50 1    
@<TRIPOS>SUBSTRUCTURE
     1 ****        3 TEMP              0 ****  ****    0 ROOT 
@<TRIPOS>NORMAL
@<TRIPOS>FF_PBC
FORCE_FIELD_SETUP_FEATURE Force Field Setup information
v1.0  0 0.000000 0.000000 0.000000 0.000000 0.000000 0.000000 NONE 0 0 0 0 1 0 0 0 0 0 0 0 0
