@<TRIPOS>MOLECULE
MOL003962
   37    36     1     1     0
SMALL
GASTEIGER


@<TRIPOS>ATOM
      1 C          -1.853612    0.053284    0.000013 C.2       1 <1>        -0.074085 
      2 C          -0.769014    0.848514    0.000059 C.2       1 <1>        -0.059103 
      3 C          -1.771573   -1.464731    0.000006 C.3       1 <1>        -0.028491 
      4 C          -3.268912    0.597636   -0.000038 C.3       1 <1>        -0.043707 
      5 C          -0.803408    2.357417    0.000059 C.3       1 <1>         0.075494 
      6 C          -0.363122   -2.121703    0.000006 C.3       1 <1>        -0.030847 
      7 O           0.551027    2.855636    0.000043 O.3       1 <1>        -0.311076 
      8 C          -0.434793   -3.632517   -0.000034 C.2       1 <1>        -0.084989 
      9 C           0.639924    4.194014    0.000042 C.2       1 <1>         0.262183 
     10 C           0.633293   -4.447996   -0.000013 C.2       1 <1>        -0.079608 
     11 C           2.048174    4.729116    0.000026 C.3       1 <1>         0.030382 
     12 O          -0.333664    4.931708    0.000055 O.2       1 <1>        -0.264975 
     13 C           0.470971   -5.953514   -0.000058 C.3       1 <1>        -0.044049 
     14 C           2.067426   -3.961359    0.000057 C.3       1 <1>        -0.044049 
     15 C           2.099717    6.278800   -0.000076 C.3       1 <1>        -0.056253 
     16 H           0.235054    0.429691    0.000101 H         1 <1>         0.059434 
     17 H          -2.308786   -1.826292    0.891804 H         1 <1>         0.031286 
     18 H          -2.308776   -1.826278   -0.891804 H         1 <1>         0.031286 
     19 H          -3.342941    1.693007    0.000043 H         1 <1>         0.027437 
     20 H          -3.797306    0.230448   -0.892644 H         1 <1>         0.027437 
     21 H          -3.797428    0.230315    0.892440 H         1 <1>         0.027437 
     22 H          -1.329635    2.706050    0.904180 H         1 <1>         0.061016 
     23 H          -1.329649    2.706054   -0.904052 H         1 <1>         0.061016 
     24 H           0.181308   -1.800899   -0.902734 H         1 <1>         0.031044 
     25 H           0.181287   -1.800943    0.902776 H         1 <1>         0.031044 
     26 H          -1.430097   -4.078426   -0.000087 H         1 <1>         0.057155 
     27 H           2.564086    4.343794    0.893783 H         1 <1>         0.036335 
     28 H           2.564114    4.343676   -0.893662 H         1 <1>         0.036335 
     29 H          -0.580955   -6.277103   -0.000102 H         1 <1>         0.027427 
     30 H           0.955518   -6.374199   -0.893951 H         1 <1>         0.027427 
     31 H           0.955459   -6.374248    0.893843 H         1 <1>         0.027427 
     32 H           2.176802   -2.868744    0.000061 H         1 <1>         0.027427 
     33 H           2.579821   -4.349271    0.893131 H         1 <1>         0.027427 
     34 H           2.579911   -4.349271   -0.892965 H         1 <1>         0.027427 
     35 H           3.145572    6.624557   -0.000080 H         1 <1>         0.023451 
     36 H           1.597120    6.676878   -0.895623 H         1 <1>         0.023451 
     37 H           1.597085    6.676999    0.895395 H         1 <1>         0.023451 
@<TRIPOS>BOND
     1    1    2 2    
     2    1    3 1    
     3    1    4 1    
     4    2    5 1    
     5    2   16 1    
     6    3    6 1    
     7    3   17 1    
     8    3   18 1    
     9    4   19 1    
    10    4   20 1    
    11    4   21 1    
    12    5    7 1    
    13    5   22 1    
    14    5   23 1    
    15    6    8 1    
    16    6   24 1    
    17    6   25 1    
    18    7    9 1    
    19    8   10 2    
    20    8   26 1    
    21    9   11 1    
    22    9   12 2    
    23   10   13 1    
    24   10   14 1    
    25   11   15 1    
    26   11   27 1    
    27   11   28 1    
    28   13   29 1    
    29   13   30 1    
    30   13   31 1    
    31   14   32 1    
    32   14   33 1    
    33   14   34 1    
    34   15   35 1    
    35   15   36 1    
    36   15   37 1    
@<TRIPOS>SUBSTRUCTURE
     1 ****        1 TEMP              0 ****  ****    0 ROOT 
@<TRIPOS>NORMAL
@<TRIPOS>FF_PBC
FORCE_FIELD_SETUP_FEATURE Force Field Setup information
v1.0  0 0.000000 0.000000 0.000000 0.000000 0.000000 0.000000 NONE 0 0 0 0 1 0 0 0 0 0 0 0 0
