@<TRIPOS>MOLECULE
MOL001949
   42    41     1     1     0
SMALL
GASTEIGER


@<TRIPOS>ATOM
      1 O           3.542394   -0.490036   -0.876015 O.3       1 <1>        -0.375659 
      2 C          -1.262237   -2.027856   -0.199404 C.3       1 <1>        -0.053056 
      3 C          -1.828144   -0.584064   -0.278502 C.3       1 <1>        -0.052779 
      4 C           0.256467   -2.027215    0.125869 C.3       1 <1>        -0.053306 
      5 C          -3.339232   -0.597301   -0.636200 C.3       1 <1>        -0.049616 
      6 C           0.800620   -3.476861    0.239499 C.3       1 <1>        -0.055911 
      7 C          -3.926454    0.838128   -0.694057 C.3       1 <1>        -0.034733 
      8 C           2.319092   -3.494802    0.548388 C.3       1 <1>        -0.065276 
      9 C          -3.940061    1.463303    0.683280 C.2       1 <1>        -0.087045 
     10 C          -3.338186    2.606807    1.042412 C.2       1 <1>        -0.076214 
     11 C          -2.540241    3.501718    0.126496 C.3       1 <1>         0.028191 
     12 C          -1.212746    2.930810   -0.065620 C.1       1 <1>        -0.084342 
     13 C          -0.114196    2.462911   -0.217748 C.1       1 <1>        -0.014439 
     14 C           3.595977    0.932481   -0.691156 C.3       1 <1>         0.134845 
     15 C           1.147040    1.932470   -0.387565 C.1       1 <1>        -0.011934 
     16 C           2.251514    1.476462   -0.528132 C.1       1 <1>        -0.052949 
     17 C           4.361797    1.206979    0.577636 C.2       1 <1>        -0.050976 
     18 C           5.410305    2.036055    0.645112 C.2       1 <1>        -0.099295 
     19 H          -1.428224   -2.538255   -1.162755 H         1 <1>         0.026528 
     20 H          -1.802221   -2.586113    0.582620 H         1 <1>         0.026528 
     21 H          -1.681224   -0.080871    0.690841 H         1 <1>         0.026538 
     22 H          -1.276966   -0.018976   -1.047880 H         1 <1>         0.026538 
     23 H           0.795898   -1.493253   -0.671989 H         1 <1>         0.026520 
     24 H           0.434253   -1.497142    1.075719 H         1 <1>         0.026520 
     25 H          -3.897230   -1.190627    0.107003 H         1 <1>         0.026822 
     26 H          -3.468966   -1.074794   -1.621647 H         1 <1>         0.026822 
     27 H           0.623211   -4.013795   -0.706920 H         1 <1>         0.026265 
     28 H           0.265675   -4.006962    1.045266 H         1 <1>         0.026265 
     29 H          -4.968487    0.790642   -1.049417 H         1 <1>         0.030732 
     30 H          -3.347573    1.415429   -1.428782 H         1 <1>         0.030732 
     31 H           2.674078   -4.533502    0.648065 H         1 <1>         0.022978 
     32 H           2.525233   -2.960772    1.489178 H         1 <1>         0.022978 
     33 H           2.881311   -3.012532   -0.265371 H         1 <1>         0.022978 
     34 H          -4.492590    0.918072    1.452000 H         1 <1>         0.056923 
     35 H          -3.422003    2.919324    2.086062 H         1 <1>         0.057829 
     36 H          -2.417358    4.496309    0.583486 H         1 <1>         0.044057 
     37 H          -3.031593    3.639858   -0.846561 H         1 <1>         0.044057 
     38 H           4.069753    1.416165   -1.561590 H         1 <1>         0.077746 
     39 H           4.026107    0.693251    1.480213 H         1 <1>         0.060144 
     40 H           3.050436   -0.738831   -1.652785 H         1 <1>         0.211429 
     41 H           5.926387    2.197793    1.592348 H         1 <1>         0.053282 
     42 H           5.780085    2.570297   -0.230196 H         1 <1>         0.053282 
@<TRIPOS>BOND
     1   14    1 1    
     2    1   40 1    
     3    3    2 1    
     4    2    4 1    
     5    2   19 1    
     6    2   20 1    
     7    5    3 1    
     8    3   21 1    
     9    3   22 1    
    10    4    6 1    
    11    4   23 1    
    12    4   24 1    
    13    7    5 1    
    14    5   25 1    
    15    5   26 1    
    16    6    8 1    
    17    6   27 1    
    18    6   28 1    
    19    9    7 1    
    20    7   29 1    
    21    7   30 1    
    22    8   31 1    
    23    8   32 1    
    24    8   33 1    
    25   10    9 2    
    26    9   34 1    
    27   11   10 1    
    28   10   35 1    
    29   12   11 1    
    30   11   36 1    
    31   11   37 1    
    32   13   12 3    
    33   15   13 1    
    34   16   14 1    
    35   14   17 1    
    36   14   38 1    
    37   15   16 3    
    38   17   18 2    
    39   17   39 1    
    40   18   41 1    
    41   18   42 1    
@<TRIPOS>SUBSTRUCTURE
     1 ****        2 TEMP              0 ****  ****    0 ROOT 
@<TRIPOS>NORMAL
@<TRIPOS>FF_PBC
FORCE_FIELD_SETUP_FEATURE Force Field Setup information
v1.0  0 0.000000 0.000000 0.000000 0.000000 0.000000 0.000000 NONE 0 0 0 0 1 0 0 0 0 0 0 0 0
