@<TRIPOS>MOLECULE
MOL000912
   24    23     1     1     0
SMALL
GASTEIGER


@<TRIPOS>ATOM
      1 C          -2.939369    0.659468    1.098374 C.3       1 <1>        -0.038948 
      2 C          -2.588427    0.228749   -0.348841 C.3       1 <1>         0.052449 
      3 C          -1.233091   -0.531451   -0.440463 C.3       1 <1>        -0.027115 
      4 C          -0.010946    0.317030    0.008834 C.3       1 <1>        -0.050742 
      5 C           1.323167   -0.437653   -0.245674 C.3       1 <1>        -0.053226 
      6 C           2.546209    0.401034    0.216023 C.3       1 <1>        -0.055910 
      7 C           3.876316   -0.354888   -0.038800 C.3       1 <1>        -0.065276 
      8 O          -3.654864   -0.631342   -0.790738 O.3       1 <1>        -0.392058 
      9 H          -2.251557    1.433015    1.470213 H         1 <1>         0.025442 
     10 H          -3.959205    1.074155    1.118772 H         1 <1>         0.025442 
     11 H          -2.903682   -0.209924    1.772233 H         1 <1>         0.025442 
     12 H          -2.556739    1.131723   -0.985783 H         1 <1>         0.059029 
     13 H          -1.293121   -1.447061    0.169654 H         1 <1>         0.028993 
     14 H          -1.081455   -0.833141   -1.489689 H         1 <1>         0.028993 
     15 H          -0.002900    1.269711   -0.545596 H         1 <1>         0.026608 
     16 H          -0.081695    0.539298    1.085082 H         1 <1>         0.026608 
     17 H           1.310255   -1.394701    0.301636 H         1 <1>         0.026521 
     18 H           1.421917   -0.656821   -1.321619 H         1 <1>         0.026521 
     19 H           2.565097    1.358350   -0.331280 H         1 <1>         0.026265 
     20 H           2.458965    0.621390    1.293165 H         1 <1>         0.026265 
     21 H           4.729845    0.256545    0.294436 H         1 <1>         0.022978 
     22 H           3.889692   -1.306291    0.515551 H         1 <1>         0.022978 
     23 H           3.997197   -0.569205   -1.112134 H         1 <1>         0.022978 
     24 H          -3.561805   -0.918092   -1.693853 H         1 <1>         0.209764 
@<TRIPOS>BOND
     1    1    2 1    
     2    1    9 1    
     3    1   10 1    
     4    1   11 1    
     5    2    3 1    
     6    2    8 1    
     7    2   12 1    
     8    3    4 1    
     9    3   13 1    
    10    3   14 1    
    11    4    5 1    
    12    4   15 1    
    13    4   16 1    
    14    5    6 1    
    15    5   17 1    
    16    5   18 1    
    17    6    7 1    
    18    6   19 1    
    19    6   20 1    
    20    7   21 1    
    21    7   22 1    
    22    7   23 1    
    23    8   24 1    
@<TRIPOS>SUBSTRUCTURE
     1 ****        1 TEMP              0 ****  ****    0 ROOT 
@<TRIPOS>NORMAL
@<TRIPOS>FF_PBC
FORCE_FIELD_SETUP_FEATURE Force Field Setup information
v1.0  0 0.000000 0.000000 0.000000 0.000000 0.000000 0.000000 NONE 0 0 0 0 1 0 0 0 0 0 0 0 0
