@<TRIPOS>MOLECULE
MOL004028
  122   128     1     1     0
SMALL
GASTEIGER


@<TRIPOS>ATOM
      1 C           8.167106    2.264313   -0.151256 C.2       1 <1>         0.266382 
      2 C          -2.004699   -2.289455   -0.678771 C.3       1 <1>         0.067186 
      3 O          -2.865520   -1.490408    0.159797 O.3       1 <1>        -0.344538 
      4 C          -1.467887   -1.289710   -1.728514 C.3       1 <1>        -0.025470 
      5 C          -0.624916   -0.158743   -1.079342 C.3       1 <1>        -0.044711 
      6 C          -0.801571   -3.054326    0.014941 C.3       1 <1>        -0.005229 
      7 C          -0.580430   -4.360591   -0.822242 C.3       1 <1>        -0.057181 
      8 C          -1.134757   -3.538806    1.469609 C.3       1 <1>        -0.057181 
      9 C           0.531866   -2.197352   -0.033714 C.3       1 <1>        -0.027826 
     10 H           0.971353   -2.376728   -1.025645 H         1 <1>         0.031210 
     11 C           1.629388   -2.683066    0.968879 C.3       1 <1>        -0.048609 
     12 C           3.032204   -2.072397    0.706970 C.3       1 <1>        -0.046268 
     13 C           3.060635   -0.510551    0.534728 C.3       1 <1>        -0.019372 
     14 C           3.075871    0.178696    1.958049 C.3       1 <1>        -0.058491 
     15 C           4.365984   -0.099952   -0.294364 C.3       1 <1>        -0.005095 
     16 C           4.402662   -0.796706   -1.720119 C.3       1 <1>        -0.055323 
     17 C           5.637554   -0.555491    0.506615 C.3       1 <1>        -0.042415 
     18 C           7.021360    0.090414    0.169687 C.3       1 <1>        -0.036973 
     19 C           7.014846    1.405718   -0.679870 C.3       1 <1>         0.062460 
     20 C           7.260788    1.082190   -2.184420 C.3       1 <1>        -0.037288 
     21 C           7.198168    2.282969   -3.165515 C.3       1 <1>        -0.046865 
     22 C           6.019055    3.285241   -2.947625 C.3       1 <1>        -0.034278 
     23 C           6.425392    4.648008   -3.600924 C.3       1 <1>        -0.059792 
     24 C           4.700475    2.843639   -3.668676 C.3       1 <1>        -0.059792 
     25 C           5.801025    3.504592   -1.415387 C.3       1 <1>        -0.040331 
     26 C           5.684353    2.206362   -0.522521 C.3       1 <1>        -0.004222 
     27 H           5.681617    2.573177    0.514056 H         1 <1>         0.035619 
     28 C           4.364433    1.434738   -0.449094 C.2       1 <1>        -0.062908 
     29 C           3.210582    2.125113   -0.454022 C.2       1 <1>        -0.083635 
     30 C           1.822901    1.568362   -0.296436 C.3       1 <1>        -0.030614 
     31 C           1.797540    0.012180   -0.252628 C.3       1 <1>        -0.025736 
     32 C           0.376659   -0.631820    0.049184 C.3       1 <1>        -0.024959 
     33 C          -0.241865   -0.204602    1.430849 C.3       1 <1>        -0.059009 
     34 O           9.183534    2.490678   -0.795963 O.2       1 <1>        -0.264536 
     35 O           8.003010    2.752039    1.076814 O.3       1 <1>        -0.330836 
     36 C          -4.035368   -2.144158    0.682540 C.3       1 <1>         0.193658 
     37 C          -4.528163   -1.316122    1.893281 C.3       1 <1>         0.173195 
     38 O          -3.485479   -1.370321    2.888509 O.3       1 <1>        -0.378508 
     39 C          -5.720955   -2.095721    2.511752 C.3       1 <1>         0.119452 
     40 O          -6.278185   -1.468520    3.680568 O.3       1 <1>        -0.386014 
     41 C          -6.818241   -2.413712    1.478506 C.3       1 <1>         0.112264 
     42 O          -7.699406   -3.349626    2.128448 O.3       1 <1>        -0.386476 
     43 C          -6.214151   -3.049567    0.192688 C.3       1 <1>         0.113029 
     44 O          -5.072229   -2.308474   -0.310720 O.3       1 <1>        -0.340170 
     45 C          -7.336478   -3.225978   -0.872728 C.3       1 <1>         0.073015 
     46 O          -8.496523   -3.782982   -0.207735 O.3       1 <1>        -0.392366 
     47 C          -4.744538    0.193642    1.527198 C.3       1 <1>         0.123324 
     48 C          -5.205386    0.542677    0.081582 C.3       1 <1>         0.112536 
     49 O          -6.478021   -0.027893   -0.260636 O.3       1 <1>        -0.386466 
     50 C          -5.334677    2.078493   -0.063856 C.3       1 <1>         0.111740 
     51 O          -5.830463    2.381577   -1.381197 O.3       1 <1>        -0.386489 
     52 C          -6.311103    2.610437    1.011996 C.3       1 <1>         0.109304 
     53 O          -6.433930    4.036598    0.830894 O.3       1 <1>        -0.386582 
     54 C          -5.749932    2.226872    2.409944 C.3       1 <1>         0.084813 
     55 O          -5.608659    0.793181    2.514257 O.3       1 <1>        -0.365224 
     56 C          -6.692622    2.644225    3.571920 C.3       1 <1>        -0.036149 
     57 H           1.960110   -0.236825   -1.303259 H         1 <1>         0.031460 
     58 H          -2.654059   -2.991197   -1.230595 H         1 <1>         0.060224 
     59 H          -0.874748   -1.831882   -2.482875 H         1 <1>         0.029047 
     60 H          -2.323903   -0.833340   -2.253163 H         1 <1>         0.029047 
     61 H          -0.132632    0.306397   -1.948295 H         1 <1>         0.027149 
     62 H          -1.303528    0.614348   -0.682277 H         1 <1>         0.027149 
     63 H           0.321499   -4.906864   -0.519705 H         1 <1>         0.023587 
     64 H          -1.430634   -5.044865   -0.700463 H         1 <1>         0.023587 
     65 H          -0.497468   -4.139572   -1.895954 H         1 <1>         0.023587 
     66 H          -1.962227   -4.262306    1.474328 H         1 <1>         0.023587 
     67 H          -0.303676   -4.089850    1.934896 H         1 <1>         0.023587 
     68 H          -1.390895   -2.704324    2.138907 H         1 <1>         0.023587 
     69 H           1.752365   -3.772636    0.891191 H         1 <1>         0.026846 
     70 H           1.384107   -2.481790    2.020049 H         1 <1>         0.026846 
     71 H           3.698482   -2.375074    1.533386 H         1 <1>         0.027096 
     72 H           3.412212   -2.619766   -0.160898 H         1 <1>         0.027096 
     73 H           3.485898   -0.464541    2.745323 H         1 <1>         0.023542 
     74 H           2.096971    0.488757    2.317460 H         1 <1>         0.023542 
     75 H           3.679477    1.095525    1.977001 H         1 <1>         0.023542 
     76 H           3.599379   -1.500903   -1.968518 H         1 <1>         0.023829 
     77 H           4.313094   -0.058517   -2.515805 H         1 <1>         0.023829 
     78 H           5.314333   -1.390227   -1.873651 H         1 <1>         0.023829 
     79 H           5.755916   -1.649374    0.419338 H         1 <1>         0.027403 
     80 H           5.495554   -0.382177    1.579892 H         1 <1>         0.027403 
     81 H           7.660518   -0.640406   -0.344072 H         1 <1>         0.027586 
     82 H           7.540184    0.276005    1.126895 H         1 <1>         0.027586 
     83 H           8.247729    0.601902   -2.292234 H         1 <1>         0.027577 
     84 H           6.537952    0.353855   -2.535119 H         1 <1>         0.027577 
     85 H           7.165812    1.885598   -4.191916 H         1 <1>         0.027072 
     86 H           8.152056    2.817521   -3.070132 H         1 <1>         0.027072 
     87 H           5.636714    5.403896   -3.468892 H         1 <1>         0.023499 
     88 H           6.602999    4.514117   -4.678084 H         1 <1>         0.023499 
     89 H           7.343498    5.051166   -3.152498 H         1 <1>         0.023499 
     90 H           4.002129    3.687597   -3.784174 H         1 <1>         0.023499 
     91 H           4.905024    2.452411   -4.677773 H         1 <1>         0.023499 
     92 H           4.164161    2.080005   -3.103349 H         1 <1>         0.023499 
     93 H           4.979399    4.214289   -1.276302 H         1 <1>         0.027642 
     94 H           6.687415    4.050869   -1.069116 H         1 <1>         0.027642 
     95 H           3.200342    3.210413   -0.522357 H         1 <1>         0.057198 
     96 H           1.207096    1.978816   -1.113139 H         1 <1>         0.031042 
     97 H           1.450216    2.011002    0.638068 H         1 <1>         0.031042 
     98 H          -1.289592   -0.491782    1.497907 H         1 <1>         0.023525 
     99 H          -0.234890    0.885159    1.559480 H         1 <1>         0.023525 
    100 H           0.220315   -0.656974    2.310330 H         1 <1>         0.023525 
    101 H           8.738857    3.294485    1.357843 H         1 <1>         0.220226 
    102 H          -3.767652   -3.138334    1.042105 H         1 <1>         0.094155 
    103 H          -3.726575   -0.896803    3.679607 H         1 <1>         0.210598 
    104 H          -5.320464   -3.070572    2.843077 H         1 <1>         0.065147 
    105 H          -6.992637   -1.983136    4.051597 H         1 <1>         0.210020 
    106 H          -7.384535   -1.499110    1.264268 H         1 <1>         0.064684 
    107 H          -8.403198   -3.642372    1.553501 H         1 <1>         0.210004 
    108 H          -5.881266   -4.069285    0.452367 H         1 <1>         0.064668 
    109 H          -6.998736   -3.904953   -1.677119 H         1 <1>         0.058370 
    110 H          -7.575106   -2.244527   -1.316100 H         1 <1>         0.058370 
    111 H          -9.252991   -3.896377   -0.777055 H         1 <1>         0.209508 
    112 H          -3.748626    0.658179    1.621021 H         1 <1>         0.065434 
    113 H          -4.454376    0.207193   -0.650901 H         1 <1>         0.064695 
    114 H          -6.757108    0.219792   -1.136820 H         1 <1>         0.210004 
    115 H          -4.350722    2.555526    0.069102 H         1 <1>         0.064672 
    116 H          -5.957557    3.316288   -1.506626 H         1 <1>         0.210004 
    117 H          -7.290590    2.124249    0.865602 H         1 <1>         0.064582 
    118 H          -7.100721    4.437473    1.380927 H         1 <1>         0.210002 
    119 H          -4.775827    2.724525    2.565482 H         1 <1>         0.061986 
    120 H          -6.273564    2.283332    4.527705 H         1 <1>         0.025535 
    121 H          -6.801304    3.739747    3.637324 H         1 <1>         0.025535 
    122 H          -7.686247    2.186193    3.432517 H         1 <1>         0.025535 
@<TRIPOS>BOND
     1   19    1 1    
     2    1   34 2    
     3    1   35 1    
     4    2    3 1    
     5    2    4 1    
     6    6    2 1    
     7    2   58 1    
     8    3   36 1    
     9    5    4 1    
    10    4   59 1    
    11    4   60 1    
    12   32    5 1    
    13    5   61 1    
    14    5   62 1    
    15    6    7 1    
    16    6    8 1    
    17    9    6 1    
    18    7   63 1    
    19    7   64 1    
    20    7   65 1    
    21    8   66 1    
    22    8   67 1    
    23    8   68 1    
    24    9   10 1    
    25   11    9 1    
    26    9   32 1    
    27   12   11 1    
    28   11   69 1    
    29   11   70 1    
    30   13   12 1    
    31   12   71 1    
    32   12   72 1    
    33   13   14 1    
    34   15   13 1    
    35   13   31 1    
    36   14   73 1    
    37   14   74 1    
    38   14   75 1    
    39   15   16 1    
    40   17   15 1    
    41   15   28 1    
    42   16   76 1    
    43   16   77 1    
    44   16   78 1    
    45   18   17 1    
    46   17   79 1    
    47   17   80 1    
    48   18   19 1    
    49   18   81 1    
    50   18   82 1    
    51   19   20 1    
    52   19   26 1    
    53   20   21 1    
    54   20   83 1    
    55   20   84 1    
    56   21   22 1    
    57   21   85 1    
    58   21   86 1    
    59   22   23 1    
    60   22   24 1    
    61   22   25 1    
    62   23   87 1    
    63   23   88 1    
    64   23   89 1    
    65   24   90 1    
    66   24   91 1    
    67   24   92 1    
    68   25   26 1    
    69   25   93 1    
    70   25   94 1    
    71   26   27 1    
    72   26   28 1    
    73   28   29 2    
    74   29   30 1    
    75   29   95 1    
    76   30   31 1    
    77   30   96 1    
    78   30   97 1    
    79   31   32 1    
    80   31   57 1    
    81   32   33 1    
    82   33   98 1    
    83   33   99 1    
    84   33  100 1    
    85   35  101 1    
    86   36   37 1    
    87   36   44 1    
    88   36  102 1    
    89   37   38 1    
    90   37   39 1    
    91   37   47 1    
    92   38  103 1    
    93   39   40 1    
    94   39   41 1    
    95   39  104 1    
    96   40  105 1    
    97   41   42 1    
    98   41   43 1    
    99   41  106 1    
   100   42  107 1    
   101   43   44 1    
   102   43   45 1    
   103   43  108 1    
   104   45   46 1    
   105   45  109 1    
   106   45  110 1    
   107   46  111 1    
   108   47   48 1    
   109   47   55 1    
   110   47  112 1    
   111   48   49 1    
   112   48   50 1    
   113   48  113 1    
   114   49  114 1    
   115   50   51 1    
   116   50   52 1    
   117   50  115 1    
   118   51  116 1    
   119   52   53 1    
   120   52   54 1    
   121   52  117 1    
   122   53  118 1    
   123   54   55 1    
   124   54   56 1    
   125   54  119 1    
   126   56  120 1    
   127   56  121 1    
   128   56  122 1    
@<TRIPOS>SUBSTRUCTURE
     1 ****        2 TEMP              0 ****  ****    0 ROOT 
@<TRIPOS>NORMAL
@<TRIPOS>FF_PBC
FORCE_FIELD_SETUP_FEATURE Force Field Setup information
v1.0  0 0.000000 0.000000 0.000000 0.000000 0.000000 0.000000 NONE 0 0 0 0 1 0 0 0 0 0 0 0 0
