@<TRIPOS>MOLECULE
MOL005271
   46    45     1     1     0
SMALL
GASTEIGER


@<TRIPOS>ATOM
      1 C          -1.395960   -1.681223   -0.152489 C.3       1 <1>        -0.053057 
      2 C          -0.126787   -2.408822    0.377836 C.3       1 <1>        -0.053057 
      3 C          -1.467402   -0.183255    0.255545 C.3       1 <1>        -0.053057 
      4 C           1.199680   -1.842698   -0.201439 C.3       1 <1>        -0.053057 
      5 C          -2.821068    0.452703   -0.165961 C.3       1 <1>        -0.053057 
      6 C           2.418826   -2.701129    0.236421 C.3       1 <1>        -0.053057 
      7 C          -2.888889    1.954620    0.225512 C.3       1 <1>        -0.053029 
      8 C           3.748062   -2.127461   -0.327185 C.3       1 <1>        -0.053065 
      9 C          -4.243959    2.588159   -0.193285 C.3       1 <1>        -0.052205 
     10 C           4.966987   -2.985037    0.110665 C.3       1 <1>        -0.053306 
     11 C          -4.309177    4.091218    0.192320 C.3       1 <1>        -0.042179 
     12 C           6.294971   -2.407808   -0.451050 C.3       1 <1>        -0.055911 
     13 C          -5.664298    4.720962   -0.223043 C.3       1 <1>         0.008885 
     14 C           7.512222   -3.263967   -0.014341 C.3       1 <1>        -0.065276 
     15 C          -5.698236    6.134339    0.139315 C.1       1 <1>        -0.105573 
     16 C          -5.724618    7.300083    0.438111 C.1       1 <1>        -0.119173 
     17 H          -1.436078   -1.764880   -1.251048 H         1 <1>         0.026528 
     18 H          -2.279350   -2.198763    0.258176 H         1 <1>         0.026528 
     19 H          -0.101402   -2.349568    1.478416 H         1 <1>         0.026528 
     20 H          -0.204956   -3.473150    0.098479 H         1 <1>         0.026528 
     21 H          -1.347679   -0.095591    1.347776 H         1 <1>         0.026528 
     22 H          -0.655043    0.378642   -0.231075 H         1 <1>         0.026528 
     23 H           1.141228   -1.827085   -1.302050 H         1 <1>         0.026528 
     24 H           1.356497   -0.812529    0.154649 H         1 <1>         0.026528 
     25 H          -2.944752    0.354218   -1.257103 H         1 <1>         0.026528 
     26 H          -3.647876   -0.086623    0.325005 H         1 <1>         0.026528 
     27 H           2.469692   -2.725235    1.337627 H         1 <1>         0.026528 
     28 H           2.288681   -3.734332   -0.125650 H         1 <1>         0.026528 
     29 H          -2.762449    2.052784    1.316337 H         1 <1>         0.026529 
     30 H          -2.065854    2.497705   -0.267573 H         1 <1>         0.026529 
     31 H           3.696180   -2.103383   -1.428191 H         1 <1>         0.026528 
     32 H           3.882118   -1.094723    0.034770 H         1 <1>         0.026528 
     33 H          -4.372313    2.486932   -1.283612 H         1 <1>         0.026556 
     34 H          -5.067717    2.049123    0.303048 H         1 <1>         0.026556 
     35 H           5.018711   -3.010453    1.211681 H         1 <1>         0.026520 
     36 H           4.836608   -4.017694   -0.252787 H         1 <1>         0.026520 
     37 H          -4.180427    4.198389    1.282312 H         1 <1>         0.027427 
     38 H          -3.490269    4.635068   -0.307414 H         1 <1>         0.027427 
     39 H           6.249643   -2.381890   -1.552594 H         1 <1>         0.026265 
     40 H           6.431944   -1.375742   -0.087223 H         1 <1>         0.026265 
     41 H          -5.810813    4.641844   -1.311470 H         1 <1>         0.039728 
     42 H          -6.499070    4.214349    0.285958 H         1 <1>         0.039728 
     43 H           7.409074   -4.295798   -0.384770 H         1 <1>         0.022978 
     44 H           7.590861   -3.288421    1.083756 H         1 <1>         0.022978 
     45 H           8.441901   -2.836839   -0.422459 H         1 <1>         0.022978 
     46 H          -5.747447    8.322768    0.700101 H         1 <1>         0.122794 
@<TRIPOS>BOND
     1    1    2 1    
     2    1    3 1    
     3    1   17 1    
     4    1   18 1    
     5    2    4 1    
     6    2   19 1    
     7    2   20 1    
     8    3    5 1    
     9    3   21 1    
    10    3   22 1    
    11    4    6 1    
    12    4   23 1    
    13    4   24 1    
    14    5    7 1    
    15    5   25 1    
    16    5   26 1    
    17    6    8 1    
    18    6   27 1    
    19    6   28 1    
    20    7    9 1    
    21    7   29 1    
    22    7   30 1    
    23    8   10 1    
    24    8   31 1    
    25    8   32 1    
    26    9   11 1    
    27    9   33 1    
    28    9   34 1    
    29   10   12 1    
    30   10   35 1    
    31   10   36 1    
    32   11   13 1    
    33   11   37 1    
    34   11   38 1    
    35   12   14 1    
    36   12   39 1    
    37   12   40 1    
    38   13   15 1    
    39   13   41 1    
    40   13   42 1    
    41   14   43 1    
    42   14   44 1    
    43   14   45 1    
    44   15   16 3    
    45   16   46 1    
@<TRIPOS>SUBSTRUCTURE
     1 ****        1 TEMP              0 ****  ****    0 ROOT 
@<TRIPOS>NORMAL
@<TRIPOS>FF_PBC
FORCE_FIELD_SETUP_FEATURE Force Field Setup information
v1.0  0 0.000000 0.000000 0.000000 0.000000 0.000000 0.000000 NONE 0 0 0 0 1 0 0 0 0 0 0 0 0
