@<TRIPOS>MOLECULE
MOL002254
  155   154     1     1     0
SMALL
GASTEIGER


@<TRIPOS>ATOM
      1 C           1.838869   -3.697944    2.388059 C.3       1 <1>         0.033200 
      2 C           1.051051   -4.200938    1.203598 C.2       1 <1>         0.262238 
      3 O           0.157957   -5.155061    1.491161 O.3       1 <1>        -0.312513 
      4 C          -0.712654   -5.526536    0.399667 C.3       1 <1>         0.085995 
      5 C          -1.867942   -4.501784    0.167272 C.3       1 <1>         0.115623 
      6 C          -1.699652   -3.627468   -1.102670 C.3       1 <1>         0.085995 
      7 O          -2.814025   -2.707510   -1.124825 O.3       1 <1>        -0.312513 
      8 C          -2.960777   -1.908773   -2.197967 C.2       1 <1>         0.262238 
      9 C          -2.019870   -1.965911   -3.388552 C.3       1 <1>         0.033200 
     10 O           1.234910   -3.770636    0.076886 O.2       1 <1>        -0.264974 
     11 O          -3.905503   -1.138059   -2.190932 O.2       1 <1>        -0.264974 
     12 O          -3.119679   -5.209006    0.016575 O.3       1 <1>        -0.307224 
     13 C          -3.576901   -5.654178    1.185186 C.2       1 <1>         0.262554 
     14 O          -4.245797   -6.230730    0.339490 O.2       1 <1>        -0.264964 
     15 C          -2.393302   -0.963654   -4.519372 C.3       1 <1>        -0.044055 
     16 C           2.669333   -2.436787    2.028211 C.3       1 <1>        -0.044055 
     17 C           8.343906   -0.969608    0.103110 C.3       1 <1>        -0.065276 
     18 C          -2.527358    2.752904    0.858742 C.3       1 <1>        -0.055911 
     19 C          -3.906103    3.458897    0.792710 C.3       1 <1>        -0.065276 
     20 C          -2.116218    6.936110    1.438145 C.3       1 <1>        -0.055911 
     21 C          -2.983898    7.370022    0.223378 C.3       1 <1>        -0.065276 
     22 C           3.275037   -1.738734    3.277455 C.3       1 <1>        -0.052596 
     23 C           4.047281   -0.415774    2.976798 C.3       1 <1>        -0.053045 
     24 C           3.192803    0.879214    2.740673 C.3       1 <1>        -0.053057 
     25 C           2.686752    1.175559    1.294967 C.3       1 <1>        -0.053057 
     26 C           3.826345    1.475408    0.271046 C.3       1 <1>        -0.053057 
     27 C           3.517574    0.991127   -1.178561 C.3       1 <1>        -0.053057 
     28 C           3.440796   -0.563019   -1.307814 C.3       1 <1>        -0.053057 
     29 C           3.602373   -1.063658   -2.775686 C.3       1 <1>        -0.053057 
     30 C           5.010981   -1.618429   -3.161855 C.3       1 <1>        -0.053057 
     31 C           6.188121   -0.595082   -3.215026 C.3       1 <1>        -0.053065 
     32 C           6.884823   -0.245650   -1.866184 C.3       1 <1>        -0.053306 
     33 C           7.657538   -1.425944   -1.211894 C.3       1 <1>        -0.055911 
     34 C          -2.574422    1.379856    0.127700 C.3       1 <1>        -0.053306 
     35 C          -1.243624    0.572671    0.202811 C.3       1 <1>        -0.053065 
     36 C          -1.193248   -0.464625    1.364826 C.3       1 <1>        -0.053057 
     37 C          -1.362787    0.159996    2.777721 C.3       1 <1>        -0.053057 
     38 C          -0.992030   -0.799392    3.944431 C.3       1 <1>        -0.053057 
     39 C          -1.737277   -2.165970    4.009237 C.3       1 <1>        -0.053057 
     40 C          -3.280023   -2.098282    4.239248 C.3       1 <1>        -0.053057 
     41 C          -4.124506   -2.071732    2.929976 C.3       1 <1>        -0.053057 
     42 C          -5.642368   -2.336046    3.160948 C.3       1 <1>        -0.053057 
     43 C          -6.116837   -3.804419    2.922801 C.3       1 <1>        -0.053045 
     44 C          -5.626941   -4.873129    3.948317 C.3       1 <1>        -0.052596 
     45 C          -4.327999   -5.650352    3.561726 C.3       1 <1>        -0.044055 
     46 C          -4.426941   -6.426728    2.205300 C.3       1 <1>         0.033210 
     47 C          -1.012509    7.967546    1.821956 C.3       1 <1>        -0.053306 
     48 C           0.384851    7.772680    1.153177 C.3       1 <1>        -0.053065 
     49 C           0.448209    7.987818   -0.390452 C.3       1 <1>        -0.053057 
     50 C           0.294113    6.684591   -1.231626 C.3       1 <1>        -0.053057 
     51 C           1.596871    5.830991   -1.269100 C.3       1 <1>        -0.053057 
     52 C           1.385221    4.421529   -1.892354 C.3       1 <1>        -0.053057 
     53 C           1.035647    4.461517   -3.406812 C.3       1 <1>        -0.053057 
     54 C           0.841936    3.041633   -4.014807 C.3       1 <1>        -0.053057 
     55 C          -0.552454    2.440446   -3.679943 C.3       1 <1>        -0.053057 
     56 C          -0.698285    0.987840   -4.211638 C.3       1 <1>        -0.053045 
     57 C          -2.181944    0.529156   -4.137074 C.3       1 <1>        -0.052596 
     58 H           2.497121   -4.503382    2.748842 H         1 <1>         0.036606 
     59 H           1.118308   -3.454025    3.184027 H         1 <1>         0.036606 
     60 H          -0.171671   -5.768066   -0.529683 H         1 <1>         0.059267 
     61 H          -1.155365   -6.470973    0.753138 H         1 <1>         0.059267 
     62 H          -1.908401   -3.802865    1.014444 H         1 <1>         0.064858 
     63 H          -0.756165   -3.063949   -1.062861 H         1 <1>         0.059267 
     64 H          -1.697635   -4.314142   -1.962754 H         1 <1>         0.059267 
     65 H          -0.982614   -1.793982   -3.071948 H         1 <1>         0.036606 
     66 H          -2.090268   -2.972136   -3.829706 H         1 <1>         0.036606 
     67 H          -3.455092   -1.126159   -4.772468 H         1 <1>         0.027004 
     68 H          -1.801285   -1.181397   -5.423938 H         1 <1>         0.027004 
     69 H           3.463242   -2.701264    1.310069 H         1 <1>         0.027004 
     70 H           1.979076   -1.748703    1.538995 H         1 <1>         0.027004 
     71 H           8.904854   -1.804885    0.551061 H         1 <1>         0.022978 
     72 H           9.044969   -0.143870   -0.092983 H         1 <1>         0.022978 
     73 H           7.589641   -0.626277    0.828884 H         1 <1>         0.022978 
     74 H          -1.766531    3.396386    0.385056 H         1 <1>         0.026265 
     75 H          -2.256147    2.642416    1.917294 H         1 <1>         0.026265 
     76 H          -3.869955    4.418355    1.329422 H         1 <1>         0.022978 
     77 H          -4.678350    2.830626    1.262784 H         1 <1>         0.022978 
     78 H          -4.193335    3.650322   -0.252446 H         1 <1>         0.022978 
     79 H          -1.663275    5.945747    1.273200 H         1 <1>         0.026265 
     80 H          -2.814764    6.833965    2.287970 H         1 <1>         0.026265 
     81 H          -2.389551    7.530850   -0.683868 H         1 <1>         0.022978 
     82 H          -3.517003    8.305959    0.452660 H         1 <1>         0.022978 
     83 H          -3.733579    6.595365    0.001130 H         1 <1>         0.022978 
     84 H           3.977082   -2.464025    3.725739 H         1 <1>         0.026540 
     85 H           2.490625   -1.536515    4.023379 H         1 <1>         0.026540 
     86 H           4.639991   -0.216604    3.887542 H         1 <1>         0.026529 
     87 H           4.766364   -0.604612    2.167915 H         1 <1>         0.026529 
     88 H           2.325866    0.850331    3.420280 H         1 <1>         0.026528 
     89 H           3.798635    1.756625    3.024326 H         1 <1>         0.026528 
     90 H           2.028984    2.062680    1.329979 H         1 <1>         0.026528 
     91 H           2.048868    0.361617    0.951627 H         1 <1>         0.026528 
     92 H           4.010162    2.564600    0.253936 H         1 <1>         0.026528 
     93 H           4.771473    1.015158    0.586000 H         1 <1>         0.026528 
     94 H           2.561989    1.424933   -1.512538 H         1 <1>         0.026528 
     95 H           4.302443    1.382259   -1.845901 H         1 <1>         0.026528 
     96 H           2.443510   -0.873980   -0.953765 H         1 <1>         0.026528 
     97 H           4.177256   -1.068747   -0.665019 H         1 <1>         0.026528 
     98 H           2.903839   -1.907753   -2.921057 H         1 <1>         0.026528 
     99 H           3.297034   -0.273177   -3.480571 H         1 <1>         0.026528 
    100 H           5.262471   -2.474344   -2.519176 H         1 <1>         0.026528 
    101 H           4.902042   -2.018136   -4.186729 H         1 <1>         0.026528 
    102 H           5.816652    0.326973   -3.692709 H         1 <1>         0.026528 
    103 H           6.977769   -1.005925   -3.867649 H         1 <1>         0.026528 
    104 H           7.606562    0.564790   -2.063027 H         1 <1>         0.026520 
    105 H           6.163259    0.136614   -1.140329 H         1 <1>         0.026520 
    106 H           6.976950   -2.255694   -0.964728 H         1 <1>         0.026265 
    107 H           8.423650   -1.802177   -1.909176 H         1 <1>         0.026265 
    108 H          -2.794476    1.611322   -0.925836 H         1 <1>         0.026520 
    109 H          -3.403189    0.761073    0.506464 H         1 <1>         0.026520 
    110 H          -0.388479    1.264420    0.267811 H         1 <1>         0.026528 
    111 H          -1.125947   -0.002219   -0.732716 H         1 <1>         0.026528 
    112 H          -1.965754   -1.227016    1.191274 H         1 <1>         0.026528 
    113 H          -0.220547   -0.973932    1.321377 H         1 <1>         0.026528 
    114 H          -2.389956    0.520502    2.929600 H         1 <1>         0.026528 
    115 H          -0.683300    1.027171    2.847401 H         1 <1>         0.026528 
    116 H           0.087247   -1.009322    3.865443 H         1 <1>         0.026528 
    117 H          -1.153295   -0.266770    4.897406 H         1 <1>         0.026528 
    118 H          -1.297562   -2.698077    4.871862 H         1 <1>         0.026528 
    119 H          -1.502656   -2.769530    3.122092 H         1 <1>         0.026528 
    120 H          -3.528448   -1.228367    4.868822 H         1 <1>         0.026528 
    121 H          -3.576764   -2.989716    4.809378 H         1 <1>         0.026528 
    122 H          -3.758628   -2.803994    2.197235 H         1 <1>         0.026528 
    123 H          -4.016143   -1.072143    2.483772 H         1 <1>         0.026528 
    124 H          -5.938503   -1.993879    4.166109 H         1 <1>         0.026528 
    125 H          -6.201443   -1.720007    2.433467 H         1 <1>         0.026528 
    126 H          -5.880477   -4.115235    1.893070 H         1 <1>         0.026529 
    127 H          -7.218374   -3.769490    2.998940 H         1 <1>         0.026529 
    128 H          -6.417571   -5.635970    4.059722 H         1 <1>         0.026540 
    129 H          -5.515766   -4.403087    4.938236 H         1 <1>         0.026540 
    130 H          -3.457596   -4.978171    3.561163 H         1 <1>         0.027004 
    131 H          -4.151296   -6.377122    4.374177 H         1 <1>         0.027004 
    132 H          -5.514426   -6.608503    2.050106 H         1 <1>         0.036606 
    133 H          -3.940162   -7.412463    2.337902 H         1 <1>         0.036606 
    134 H          -1.379701    8.990735    1.641249 H         1 <1>         0.026520 
    135 H          -0.841118    7.874719    2.909895 H         1 <1>         0.026520 
    136 H           1.048810    8.525101    1.614399 H         1 <1>         0.026528 
    137 H           0.779424    6.784566    1.431581 H         1 <1>         0.026528 
    138 H           1.424797    8.421824   -0.664748 H         1 <1>         0.026528 
    139 H          -0.313443    8.733025   -0.670287 H         1 <1>         0.026528 
    140 H          -0.525361    6.065703   -0.841250 H         1 <1>         0.026528 
    141 H           0.035391    6.980302   -2.260759 H         1 <1>         0.026528 
    142 H           1.971043    5.679923   -0.243967 H         1 <1>         0.026528 
    143 H           2.378452    6.370810   -1.829169 H         1 <1>         0.026528 
    144 H           2.327635    3.861485   -1.776743 H         1 <1>         0.026528 
    145 H           0.606566    3.894908   -1.319115 H         1 <1>         0.026528 
    146 H           0.119052    5.042645   -3.588100 H         1 <1>         0.026528 
    147 H           1.865140    4.966368   -3.929570 H         1 <1>         0.026528 
    148 H           1.643064    2.369649   -3.669497 H         1 <1>         0.026528 
    149 H           0.918251    3.115037   -5.113424 H         1 <1>         0.026528 
    150 H          -0.724650    2.426756   -2.592795 H         1 <1>         0.026528 
    151 H          -1.325686    3.079890   -4.137014 H         1 <1>         0.026528 
    152 H          -0.047053    0.331049   -3.613706 H         1 <1>         0.026529 
    153 H          -0.366068    0.935736   -5.261685 H         1 <1>         0.026529 
    154 H          -2.575492    0.712988   -3.129482 H         1 <1>         0.026540 
    155 H          -2.762065    1.153230   -4.838019 H         1 <1>         0.026540 
@<TRIPOS>BOND
     1    2    1 1    
     2    1   16 1    
     3    1   58 1    
     4    1   59 1    
     5    3    2 1    
     6    2   10 2    
     7    4    3 1    
     8    5    4 1    
     9    4   60 1    
    10    4   61 1    
    11    6    5 1    
    12    5   12 1    
    13    5   62 1    
    14    7    6 1    
    15    6   63 1    
    16    6   64 1    
    17    8    7 1    
    18    9    8 1    
    19    8   11 2    
    20   15    9 1    
    21    9   65 1    
    22    9   66 1    
    23   12   13 1    
    24   13   14 2    
    25   13   46 1    
    26   57   15 1    
    27   15   67 1    
    28   15   68 1    
    29   16   22 1    
    30   16   69 1    
    31   16   70 1    
    32   33   17 1    
    33   17   71 1    
    34   17   72 1    
    35   17   73 1    
    36   18   19 1    
    37   34   18 1    
    38   18   74 1    
    39   18   75 1    
    40   19   76 1    
    41   19   77 1    
    42   19   78 1    
    43   20   21 1    
    44   47   20 1    
    45   20   79 1    
    46   20   80 1    
    47   21   81 1    
    48   21   82 1    
    49   21   83 1    
    50   22   23 1    
    51   22   84 1    
    52   22   85 1    
    53   23   24 1    
    54   23   86 1    
    55   23   87 1    
    56   24   25 1    
    57   24   88 1    
    58   24   89 1    
    59   25   26 1    
    60   25   90 1    
    61   25   91 1    
    62   26   27 1    
    63   26   92 1    
    64   26   93 1    
    65   27   28 1    
    66   27   94 1    
    67   27   95 1    
    68   28   29 1    
    69   28   96 1    
    70   28   97 1    
    71   29   30 1    
    72   29   98 1    
    73   29   99 1    
    74   30   31 1    
    75   30  100 1    
    76   30  101 1    
    77   31   32 1    
    78   31  102 1    
    79   31  103 1    
    80   32   33 1    
    81   32  104 1    
    82   32  105 1    
    83   33  106 1    
    84   33  107 1    
    85   35   34 1    
    86   34  108 1    
    87   34  109 1    
    88   36   35 1    
    89   35  110 1    
    90   35  111 1    
    91   37   36 1    
    92   36  112 1    
    93   36  113 1    
    94   38   37 1    
    95   37  114 1    
    96   37  115 1    
    97   39   38 1    
    98   38  116 1    
    99   38  117 1    
   100   40   39 1    
   101   39  118 1    
   102   39  119 1    
   103   41   40 1    
   104   40  120 1    
   105   40  121 1    
   106   42   41 1    
   107   41  122 1    
   108   41  123 1    
   109   43   42 1    
   110   42  124 1    
   111   42  125 1    
   112   44   43 1    
   113   43  126 1    
   114   43  127 1    
   115   45   44 1    
   116   44  128 1    
   117   44  129 1    
   118   46   45 1    
   119   45  130 1    
   120   45  131 1    
   121   46  132 1    
   122   46  133 1    
   123   48   47 1    
   124   47  134 1    
   125   47  135 1    
   126   49   48 1    
   127   48  136 1    
   128   48  137 1    
   129   50   49 1    
   130   49  138 1    
   131   49  139 1    
   132   51   50 1    
   133   50  140 1    
   134   50  141 1    
   135   52   51 1    
   136   51  142 1    
   137   51  143 1    
   138   53   52 1    
   139   52  144 1    
   140   52  145 1    
   141   54   53 1    
   142   53  146 1    
   143   53  147 1    
   144   55   54 1    
   145   54  148 1    
   146   54  149 1    
   147   56   55 1    
   148   55  150 1    
   149   55  151 1    
   150   56   57 1    
   151   56  152 1    
   152   56  153 1    
   153   57  154 1    
   154   57  155 1    
@<TRIPOS>SUBSTRUCTURE
     1 ****       20 TEMP              0 ****  ****    0 ROOT 
@<TRIPOS>NORMAL
@<TRIPOS>FF_PBC
FORCE_FIELD_SETUP_FEATURE Force Field Setup information
v1.0  0 0.000000 0.000000 0.000000 0.000000 0.000000 0.000000 NONE 0 0 0 0 1 0 0 0 0 0 0 0 0
