@<TRIPOS>MOLECULE
MOL001402
   86    85     1     1     0
SMALL
GASTEIGER


@<TRIPOS>ATOM
      1 C         -17.317879   -0.455081   -0.000111 C.3       1 <1>        -0.065276 
      2 C         -16.042746    0.427962    0.000118 C.3       1 <1>        -0.055911 
      3 C         -14.755038   -0.440259   -0.000106 C.3       1 <1>        -0.053306 
      4 C         -13.475779    0.441153    0.000120 C.3       1 <1>        -0.053065 
      5 C         -12.189830   -0.430318   -0.000111 C.3       1 <1>        -0.053057 
      6 C         -10.907717    0.446810    0.000114 C.3       1 <1>        -0.053057 
      7 C          -9.624933   -0.429433   -0.000113 C.3       1 <1>        -0.053057 
      8 C          -8.340234    0.443847    0.000115 C.3       1 <1>        -0.053057 
      9 C          -7.058656   -0.434257   -0.000113 C.3       1 <1>        -0.053057 
     10 C          -5.773841    0.438775    0.000114 C.3       1 <1>        -0.053057 
     11 C          -4.491978   -0.438798   -0.000114 C.3       1 <1>        -0.053057 
     12 C          -3.208171    0.435850    0.000113 C.3       1 <1>        -0.053057 
     13 C          -1.924777   -0.439399   -0.000114 C.3       1 <1>        -0.053057 
     14 C          -0.642108    0.437041    0.000114 C.3       1 <1>        -0.053057 
     15 C           0.642108   -0.437041   -0.000113 C.3       1 <1>        -0.053057 
     16 C           1.924777    0.439399    0.000114 C.3       1 <1>        -0.053057 
     17 C           3.208171   -0.435850   -0.000113 C.3       1 <1>        -0.053057 
     18 C           4.491978    0.438798    0.000114 C.3       1 <1>        -0.053057 
     19 C           5.773841   -0.438775   -0.000114 C.3       1 <1>        -0.053057 
     20 C           7.058656    0.434257    0.000113 C.3       1 <1>        -0.053057 
     21 C           8.340234   -0.443847   -0.000115 C.3       1 <1>        -0.053057 
     22 C           9.624933    0.429433    0.000113 C.3       1 <1>        -0.053057 
     23 C          10.907717   -0.446810   -0.000114 C.3       1 <1>        -0.053057 
     24 C          12.189830    0.430318    0.000111 C.3       1 <1>        -0.053057 
     25 C          13.475779   -0.441153   -0.000120 C.3       1 <1>        -0.053065 
     26 C          14.755038    0.440259    0.000106 C.3       1 <1>        -0.053306 
     27 C          16.042746   -0.427962   -0.000118 C.3       1 <1>        -0.055911 
     28 C          17.317879    0.455081    0.000111 C.3       1 <1>        -0.065276 
     29 H         -18.218461    0.179267    0.000052 H         1 <1>         0.022978 
     30 H         -17.341541   -1.096042   -0.895267 H         1 <1>         0.022978 
     31 H         -17.341538   -1.096503    0.894710 H         1 <1>         0.022978 
     32 H         -16.052354    1.074117    0.893760 H         1 <1>         0.026265 
     33 H         -16.052356    1.074582   -0.893201 H         1 <1>         0.026265 
     34 H         -14.752731   -1.086116   -0.893625 H         1 <1>         0.026520 
     35 H         -14.752729   -1.086573    0.893062 H         1 <1>         0.026520 
     36 H         -13.478438    1.087009    0.893642 H         1 <1>         0.026528 
     37 H         -13.478439    1.087474   -0.893082 H         1 <1>         0.026528 
     38 H         -12.188458   -1.076210   -0.893567 H         1 <1>         0.026528 
     39 H         -12.188457   -1.076672    0.893007 H         1 <1>         0.026528 
     40 H         -10.908020    1.092681    0.893583 H         1 <1>         0.026528 
     41 H         -10.908021    1.093143   -0.893017 H         1 <1>         0.026528 
     42 H          -9.625530   -1.075354   -0.893577 H         1 <1>         0.026528 
     43 H          -9.625531   -1.075818    0.893018 H         1 <1>         0.026528 
     44 H          -8.339198    1.089703    0.893625 H         1 <1>         0.026528 
     45 H          -8.339198    1.090165   -0.893062 H         1 <1>         0.026528 
     46 H          -7.059710   -1.080158   -0.893586 H         1 <1>         0.026528 
     47 H          -7.059711   -1.080621    0.893025 H         1 <1>         0.026528 
     48 H          -5.772744    1.084638    0.893576 H         1 <1>         0.026528 
     49 H          -5.772744    1.085101   -0.893013 H         1 <1>         0.026528 
     50 H          -4.492706   -1.084738   -0.893594 H         1 <1>         0.026528 
     51 H          -4.492706   -1.085201    0.893032 H         1 <1>         0.026528 
     52 H          -3.208134    1.081730    0.893589 H         1 <1>         0.026528 
     53 H          -3.208134    1.082193   -0.893027 H         1 <1>         0.026528 
     54 H          -1.924643   -1.085273   -0.893576 H         1 <1>         0.026528 
     55 H          -1.924643   -1.085735    0.893014 H         1 <1>         0.026528 
     56 H          -0.642589    1.082950    0.893583 H         1 <1>         0.026528 
     57 H          -0.642588    1.083412   -0.893021 H         1 <1>         0.026528 
     58 H           0.642589   -1.082950   -0.893583 H         1 <1>         0.026528 
     59 H           0.642589   -1.083412    0.893021 H         1 <1>         0.026528 
     60 H           1.924643    1.085273    0.893576 H         1 <1>         0.026528 
     61 H           1.924643    1.085736   -0.893013 H         1 <1>         0.026528 
     62 H           3.208134   -1.081730   -0.893589 H         1 <1>         0.026528 
     63 H           3.208134   -1.082193    0.893027 H         1 <1>         0.026528 
     64 H           4.492706    1.084738    0.893594 H         1 <1>         0.026528 
     65 H           4.492706    1.085201   -0.893032 H         1 <1>         0.026528 
     66 H           5.772744   -1.084638   -0.893576 H         1 <1>         0.026528 
     67 H           5.772744   -1.085101    0.893013 H         1 <1>         0.026528 
     68 H           7.059710    1.080158    0.893586 H         1 <1>         0.026528 
     69 H           7.059711    1.080621   -0.893025 H         1 <1>         0.026528 
     70 H           8.339198   -1.089703   -0.893625 H         1 <1>         0.026528 
     71 H           8.339198   -1.090165    0.893062 H         1 <1>         0.026528 
     72 H           9.625530    1.075354    0.893577 H         1 <1>         0.026528 
     73 H           9.625531    1.075818   -0.893018 H         1 <1>         0.026528 
     74 H          10.908020   -1.092681   -0.893583 H         1 <1>         0.026528 
     75 H          10.908021   -1.093143    0.893017 H         1 <1>         0.026528 
     76 H          12.188458    1.076210    0.893567 H         1 <1>         0.026528 
     77 H          12.188457    1.076672   -0.893007 H         1 <1>         0.026528 
     78 H          13.478438   -1.087009   -0.893642 H         1 <1>         0.026528 
     79 H          13.478439   -1.087474    0.893082 H         1 <1>         0.026528 
     80 H          14.752731    1.086116    0.893625 H         1 <1>         0.026520 
     81 H          14.752729    1.086573   -0.893062 H         1 <1>         0.026520 
     82 H          16.052354   -1.074117   -0.893760 H         1 <1>         0.026265 
     83 H          16.052356   -1.074582    0.893201 H         1 <1>         0.026265 
     84 H          18.218461   -0.179267   -0.000052 H         1 <1>         0.022978 
     85 H          17.341541    1.096042    0.895267 H         1 <1>         0.022978 
     86 H          17.341538    1.096503   -0.894710 H         1 <1>         0.022978 
@<TRIPOS>BOND
     1    1    2 1    
     2    1   29 1    
     3    1   30 1    
     4    1   31 1    
     5    2    3 1    
     6    2   32 1    
     7    2   33 1    
     8    3    4 1    
     9    3   34 1    
    10    3   35 1    
    11    4    5 1    
    12    4   36 1    
    13    4   37 1    
    14    5    6 1    
    15    5   38 1    
    16    5   39 1    
    17    6    7 1    
    18    6   40 1    
    19    6   41 1    
    20    7    8 1    
    21    7   42 1    
    22    7   43 1    
    23    8    9 1    
    24    8   44 1    
    25    8   45 1    
    26    9   10 1    
    27    9   46 1    
    28    9   47 1    
    29   10   11 1    
    30   10   48 1    
    31   10   49 1    
    32   11   12 1    
    33   11   50 1    
    34   11   51 1    
    35   12   13 1    
    36   12   52 1    
    37   12   53 1    
    38   13   14 1    
    39   13   54 1    
    40   13   55 1    
    41   14   15 1    
    42   14   56 1    
    43   14   57 1    
    44   15   16 1    
    45   15   58 1    
    46   15   59 1    
    47   16   17 1    
    48   16   60 1    
    49   16   61 1    
    50   17   18 1    
    51   17   62 1    
    52   17   63 1    
    53   18   19 1    
    54   18   64 1    
    55   18   65 1    
    56   19   20 1    
    57   19   66 1    
    58   19   67 1    
    59   20   21 1    
    60   20   68 1    
    61   20   69 1    
    62   21   22 1    
    63   21   70 1    
    64   21   71 1    
    65   22   23 1    
    66   22   72 1    
    67   22   73 1    
    68   23   24 1    
    69   23   74 1    
    70   23   75 1    
    71   24   25 1    
    72   24   76 1    
    73   24   77 1    
    74   25   26 1    
    75   25   78 1    
    76   25   79 1    
    77   26   27 1    
    78   26   80 1    
    79   26   81 1    
    80   27   28 1    
    81   27   82 1    
    82   27   83 1    
    83   28   84 1    
    84   28   85 1    
    85   28   86 1    
@<TRIPOS>SUBSTRUCTURE
     1 ****        1 TEMP              0 ****  ****    0 ROOT 
@<TRIPOS>NORMAL
@<TRIPOS>FF_PBC
FORCE_FIELD_SETUP_FEATURE Force Field Setup information
v1.0  0 0.000000 0.000000 0.000000 0.000000 0.000000 0.000000 NONE 0 0 0 0 1 0 0 0 0 0 0 0 0
