@<TRIPOS>MOLECULE
MOL012415
   38    38     1     1     0
SMALL
GASTEIGER


@<TRIPOS>ATOM
      1 C          -1.660892   -2.198356   -0.620506 C.2       1 <1>        -0.084317 
      2 C          -0.303379   -2.800994   -0.332123 C.3       1 <1>        -0.030828 
      3 C           0.666290   -2.582893   -1.530626 C.3       1 <1>        -0.028553 
      4 C           0.872609   -1.089911   -1.624685 C.2       1 <1>        -0.075930 
      5 C           1.568438   -0.515996   -0.631631 C.2       1 <1>        -0.080602 
      6 C          -1.430904    0.261801    0.193859 C.3       1 <1>         0.031032 
      7 C          -2.134468   -0.952610   -0.410014 C.2       1 <1>        -0.069113 
      8 C           1.722414    0.944864   -0.314134 C.3       1 <1>        -0.005985 
      9 C           0.913627    1.110863    0.960342 C.2       1 <1>        -0.002218 
     10 C          -0.261322    0.214512    1.147846 C.2       1 <1>         0.163409 
     11 O          -0.296124   -0.537775    2.107992 O.2       1 <1>        -0.292047 
     12 C           1.248375    2.025652    1.890649 C.2       1 <1>        -0.068932 
     13 C           0.469064    2.223100    3.176509 C.3       1 <1>        -0.043386 
     14 C           2.444128    2.941435    1.722172 C.3       1 <1>        -0.043386 
     15 C           0.218897   -0.401622   -2.805216 C.3       1 <1>        -0.043768 
     16 C          -3.559798   -0.652117   -0.846062 C.3       1 <1>        -0.043375 
     17 H          -2.329043   -2.923601   -1.088220 H         1 <1>         0.057174 
     18 H           0.102492   -2.408124    0.607324 H         1 <1>         0.031044 
     19 H          -0.420071   -3.887131   -0.176780 H         1 <1>         0.031044 
     20 H           0.232453   -3.003160   -2.452794 H         1 <1>         0.031285 
     21 H           1.624811   -3.095524   -1.345386 H         1 <1>         0.031285 
     22 H           2.059962   -1.158633    0.103420 H         1 <1>         0.057481 
     23 H          -2.182571    0.786670    0.803264 H         1 <1>         0.039016 
     24 H          -1.176586    0.932752   -0.639034 H         1 <1>         0.039016 
     25 H           1.341564    1.642386   -1.069448 H         1 <1>         0.035665 
     26 H           2.798885    1.130109   -0.183812 H         1 <1>         0.035665 
     27 H           1.117054    1.956080    4.024207 H         1 <1>         0.027446 
     28 H          -0.455366    1.634285    3.254154 H         1 <1>         0.027446 
     29 H           0.181603    3.280782    3.272084 H         1 <1>         0.027446 
     30 H           2.487284    3.361240    0.705783 H         1 <1>         0.027446 
     31 H           2.414849    3.791100    2.420965 H         1 <1>         0.027446 
     32 H           3.366240    2.374881    1.921441 H         1 <1>         0.027446 
     33 H          -0.858823   -0.617464   -2.821559 H         1 <1>         0.027436 
     34 H           0.344432    0.686498   -2.833716 H         1 <1>         0.027436 
     35 H           0.663179   -0.805637   -3.727100 H         1 <1>         0.027436 
     36 H          -4.185991   -0.481166    0.042661 H         1 <1>         0.027447 
     37 H          -3.569512    0.260853   -1.461215 H         1 <1>         0.027447 
     38 H          -4.033798   -1.447248   -1.440811 H         1 <1>         0.027447 
@<TRIPOS>BOND
     1    1    2 1    
     2    1    7 2    
     3    1   17 1    
     4    2    3 1    
     5    2   18 1    
     6    2   19 1    
     7    3    4 1    
     8    3   20 1    
     9    3   21 1    
    10    4    5 2    
    11    4   15 1    
    12    5    8 1    
    13    5   22 1    
    14    7    6 1    
    15    6   10 1    
    16    6   23 1    
    17    6   24 1    
    18    7   16 1    
    19    8    9 1    
    20    8   25 1    
    21    8   26 1    
    22    9   10 1    
    23    9   12 2    
    24   10   11 2    
    25   12   13 1    
    26   12   14 1    
    27   13   27 1    
    28   13   28 1    
    29   13   29 1    
    30   14   30 1    
    31   14   31 1    
    32   14   32 1    
    33   15   33 1    
    34   15   34 1    
    35   15   35 1    
    36   16   36 1    
    37   16   37 1    
    38   16   38 1    
@<TRIPOS>SUBSTRUCTURE
     1 ****        1 TEMP              0 ****  ****    0 ROOT 
@<TRIPOS>NORMAL
@<TRIPOS>FF_PBC
FORCE_FIELD_SETUP_FEATURE Force Field Setup information
v1.0  0 0.000000 0.000000 0.000000 0.000000 0.000000 0.000000 NONE 0 0 0 0 1 0 0 0 0 0 0 0 0
