@<TRIPOS>MOLECULE
MOL002818
   18    18     1     1     0
SMALL
GASTEIGER


@<TRIPOS>ATOM
      1 C           0.790312    1.569318    1.143529 C.2       1 <1>         0.160115 
      2 C          -0.111074    2.409409    2.015884 C.3       1 <1>        -0.001410 
      3 C           0.356788    0.407501    0.267137 C.ar      1 <1>         0.017268 
      4 C           1.403372   -0.294955   -0.520704 C.ar      1 <1>        -0.048846 
      5 C           1.081016   -1.377582   -1.353610 C.ar      1 <1>        -0.031278 
      6 C          -0.316767   -1.848789   -1.468414 C.ar      1 <1>         0.072619 
      7 C          -1.323962   -1.194867   -0.728406 C.ar      1 <1>        -0.031278 
      8 C          -0.984900   -0.050706    0.152285 C.ar      1 <1>        -0.048846 
      9 O          -0.607135   -2.929137   -2.305891 O.3       1 <1>        -0.359832 
     10 O           1.974592    1.865391    1.156123 O.2       1 <1>        -0.292356 
     11 H          -1.170791    2.133768    1.992089 H         1 <1>         0.030932 
     12 H           0.237209    2.331640    3.056710 H         1 <1>         0.030932 
     13 H          -0.026010    3.459522    1.698544 H         1 <1>         0.030932 
     14 H           2.437676    0.027688   -0.457318 H         1 <1>         0.062529 
     15 H           1.856546   -1.879725   -1.922152 H         1 <1>         0.064339 
     16 H          -2.355976   -1.522369   -0.796269 H         1 <1>         0.064339 
     17 H          -1.793708    0.415270    0.697721 H         1 <1>         0.062529 
     18 H          -1.525456   -3.173340   -2.327591 H         1 <1>         0.217313 
@<TRIPOS>BOND
     1    1    2 1    
     2    1    3 1    
     3    1   10 2    
     4    2   11 1    
     5    2   12 1    
     6    2   13 1    
     7    3    4 1    
     8    3    8 2    
     9    4    5 2    
    10    4   14 1    
    11    5    6 1    
    12    5   15 1    
    13    6    7 2    
    14    6    9 1    
    15    7    8 1    
    16    7   16 1    
    17    8   17 1    
    18    9   18 1    
@<TRIPOS>SUBSTRUCTURE
     1 ****        1 TEMP              0 ****  ****    0 ROOT 
@<TRIPOS>NORMAL
@<TRIPOS>FF_PBC
FORCE_FIELD_SETUP_FEATURE Force Field Setup information
v1.0  0 0.000000 0.000000 0.000000 0.000000 0.000000 0.000000 NONE 0 0 0 0 1 0 0 0 0 0 0 0 0
