@<TRIPOS>MOLECULE
MOL004812
   53    55     1     1     0
SMALL
GASTEIGER


@<TRIPOS>ATOM
      1 O           2.278887   -1.578567   -0.816685 O.3       1 <1>        -0.343648 
      2 O          -0.596695    1.820206    1.057917 O.3       1 <1>        -0.347194 
      3 O          -2.216922   -0.964764   -2.626779 O.3       1 <1>        -0.347465 
      4 O           6.025789   -0.007889    1.951677 O.3       1 <1>        -0.359468 
      5 O           4.365287   -3.055136    5.446231 O.3       1 <1>        -0.359750 
      6 C           3.389153    0.043633    0.638893 C.3       1 <1>         0.014615 
      7 C           2.030420    0.756622    0.859881 C.3       1 <1>        -0.013741 
      8 C           0.897057    0.157872    0.022380 C.ar      1 <1>         0.013587 
      9 C           3.414464   -0.710175   -0.709640 C.3       1 <1>         0.061401 
     10 C           3.688036   -0.870786    1.834387 C.ar      1 <1>        -0.011920 
     11 C           1.064291   -0.901984   -0.777907 C.ar      1 <1>         0.084291 
     12 C          -0.423443    0.817851    0.097392 C.ar      1 <1>         0.087350 
     13 C          -1.421320    0.457495   -0.737833 C.ar      1 <1>         0.016636 
     14 C          -0.039902   -1.342136   -1.660560 C.ar      1 <1>        -0.000951 
     15 C          -1.207135   -0.660153   -1.700223 C.ar      1 <1>         0.084183 
     16 C           5.010393   -0.803728    2.502407 C.ar      1 <1>         0.078527 
     17 C           2.699382   -1.742437    2.309515 C.ar      1 <1>        -0.053353 
     18 C          -2.740093    1.237601   -0.666408 C.3       1 <1>        -0.004335 
     19 C           5.225305   -1.541902    3.677733 C.ar      1 <1>        -0.001893 
     20 C           2.934128   -2.520393    3.550405 C.ar      1 <1>        -0.031512 
     21 C           4.150529   -2.390991    4.236946 C.ar      1 <1>         0.075035 
     22 C          -4.000514    0.591930   -1.193754 C.2       1 <1>        -0.080815 
     23 C          -0.406203    3.178536    0.631310 C.3       1 <1>         0.043052 
     24 C          -5.005979    1.307365   -1.717508 C.2       1 <1>        -0.079306 
     25 C          -6.221637    0.633459   -2.323829 C.3       1 <1>        -0.044040 
     26 C          -5.014990    2.826562   -1.752512 C.3       1 <1>        -0.044040 
     27 H           4.172112    0.819433    0.613383 H         1 <1>         0.037527 
     28 H           1.737247    0.780084    1.921847 H         1 <1>         0.032136 
     29 H           2.131943    1.796724    0.515969 H         1 <1>         0.032136 
     30 H           4.340038   -1.303255   -0.775721 H         1 <1>         0.057101 
     31 H           3.391207    0.009365   -1.545811 H         1 <1>         0.057101 
     32 H           0.138454   -2.207684   -2.280866 H         1 <1>         0.066936 
     33 H           1.751147   -1.839493    1.798061 H         1 <1>         0.062197 
     34 H          -2.505818    2.118250   -1.285238 H         1 <1>         0.035721 
     35 H          -2.946325    1.535481    0.374346 H         1 <1>         0.035721 
     36 H           6.175101   -1.506122    4.189392 H         1 <1>         0.066910 
     37 H           2.147503   -3.170194    3.923360 H         1 <1>         0.064330 
     38 H          -4.073126   -0.499542   -1.134235 H         1 <1>         0.057473 
     39 C          -2.242381   -2.162834   -3.421995 C.3       1 <1>         0.043040 
     40 H           6.813525    0.045844    2.479084 H         1 <1>         0.217326 
     41 H          -0.182962    3.776827    1.529427 H         1 <1>         0.052870 
     42 H           0.421218    3.279804   -0.083754 H         1 <1>         0.052870 
     43 H          -1.317985    3.563654    0.158812 H         1 <1>         0.052870 
     44 H          -6.139179   -0.467240   -2.337921 H         1 <1>         0.027427 
     45 H          -6.335732    0.983535   -3.363114 H         1 <1>         0.027427 
     46 H          -7.123294    0.907806   -1.752443 H         1 <1>         0.027427 
     47 H          -6.045245    3.202065   -1.662483 H         1 <1>         0.027427 
     48 H          -4.592054    3.161842   -2.712346 H         1 <1>         0.027427 
     49 H          -4.445513    3.278104   -0.924452 H         1 <1>         0.027427 
     50 H           3.562057   -3.185952    5.936303 H         1 <1>         0.217315 
     51 H          -3.111923   -2.086945   -4.089765 H         1 <1>         0.052870 
     52 H          -1.348637   -2.267743   -4.054617 H         1 <1>         0.052870 
     53 H          -2.366014   -3.048157   -2.780986 H         1 <1>         0.052870 
@<TRIPOS>BOND
     1    9    1 1    
     2    1   11 1    
     3   12    2 1    
     4    2   23 1    
     5   15    3 1    
     6    3   39 1    
     7   16    4 1    
     8    4   40 1    
     9   21    5 1    
    10    5   50 1    
    11    6    7 1    
    12    6    9 1    
    13   10    6 1    
    14    6   27 1    
    15    7    8 1    
    16    7   28 1    
    17    7   29 1    
    18    8   11 2    
    19    8   12 1    
    20    9   30 1    
    21    9   31 1    
    22   16   10 1    
    23   10   17 2    
    24   11   14 1    
    25   12   13 2    
    26   13   15 1    
    27   13   18 1    
    28   14   15 2    
    29   14   32 1    
    30   19   16 2    
    31   17   20 1    
    32   17   33 1    
    33   18   22 1    
    34   18   34 1    
    35   18   35 1    
    36   19   21 1    
    37   19   36 1    
    38   20   21 2    
    39   20   37 1    
    40   22   24 2    
    41   22   38 1    
    42   23   41 1    
    43   23   42 1    
    44   23   43 1    
    45   24   25 1    
    46   24   26 1    
    47   25   44 1    
    48   25   45 1    
    49   25   46 1    
    50   26   47 1    
    51   26   48 1    
    52   26   49 1    
    53   39   51 1    
    54   39   52 1    
    55   39   53 1    
@<TRIPOS>SUBSTRUCTURE
     1 ****        6 TEMP              0 ****  ****    0 ROOT 
@<TRIPOS>NORMAL
@<TRIPOS>FF_PBC
FORCE_FIELD_SETUP_FEATURE Force Field Setup information
v1.0  0 0.000000 0.000000 0.000000 0.000000 0.000000 0.000000 NONE 0 0 0 0 1 0 0 0 0 0 0 0 0
