@<TRIPOS>MOLECULE
MOL008042
   36    38     1     1     0
SMALL
GASTEIGER


@<TRIPOS>ATOM
      1 O           0.017853    0.666028    0.165207 O.3       1 <1>        -0.332984 
      2 O          -2.511070   -1.979646   -0.375210 O.3       1 <1>        -0.380952 
      3 O          -0.267521   -3.418357    0.168516 O.2       1 <1>        -0.289004 
      4 O           2.355202   -3.615044    0.171477 O.3       1 <1>        -0.358965 
      5 O           4.856228    0.637951    0.090596 O.3       1 <1>        -0.347747 
      6 O          -5.816571    3.426765    0.005305 O.3       1 <1>        -0.359832 
      7 C          -1.111776    0.000600   -0.427461 C.3       1 <1>         0.123190 
      8 C          -1.389730   -1.348372    0.275243 C.3       1 <1>         0.148229 
      9 C          -0.150161   -2.203521    0.199965 C.2       1 <1>         0.199195 
     10 C           1.202689   -1.528825    0.168770 C.ar      1 <1>         0.079859 
     11 C          -2.346425    0.902453   -0.302716 C.ar      1 <1>        -0.015328 
     12 C           1.216501   -0.047087    0.155339 C.ar      1 <1>         0.092574 
     13 C           2.372179   -2.218259    0.155168 C.ar      1 <1>         0.088065 
     14 C           2.380161    0.617689    0.136977 C.ar      1 <1>        -0.000776 
     15 C          -3.379412    0.907737   -1.367998 C.ar      1 <1>        -0.053576 
     16 C          -2.513112    1.733390    0.823617 C.ar      1 <1>        -0.053576 
     17 C           3.670561   -0.108869    0.117537 C.ar      1 <1>         0.080735 
     18 C           3.661109   -1.477935    0.124881 C.ar      1 <1>        -0.001065 
     19 C          -4.506890    1.736491   -1.256196 C.ar      1 <1>        -0.031600 
     20 C          -3.703991    2.607886    0.942471 C.ar      1 <1>        -0.031600 
     21 C          -4.683419    2.613225   -0.075565 C.ar      1 <1>         0.072600 
     22 C           6.155394    0.030104   -0.008362 C.3       1 <1>         0.043029 
     23 H          -2.701297   -2.838455   -0.008243 H         1 <1>         0.210495 
     24 H           3.215025   -4.019328    0.177466 H         1 <1>         0.217342 
     25 H          -5.878552    3.934760    0.806087 H         1 <1>         0.217313 
     26 H          -0.899472   -0.177846   -1.494645 H         1 <1>         0.068214 
     27 H          -1.613111   -1.158014    1.338002 H         1 <1>         0.070645 
     28 H           2.380761    1.701523    0.133113 H         1 <1>         0.066939 
     29 H          -3.265706    0.267421   -2.236972 H         1 <1>         0.062191 
     30 H          -1.769522    1.738707    1.613302 H         1 <1>         0.062191 
     31 H           4.582522   -2.044263    0.108707 H         1 <1>         0.066931 
     32 H          -5.260912    1.740321   -2.035882 H         1 <1>         0.064329 
     33 H          -3.811688    3.240297    1.816737 H         1 <1>         0.064329 
     34 H           6.898367    0.840626   -0.040853 H         1 <1>         0.052870 
     35 H           6.369809   -0.599533    0.869054 H         1 <1>         0.052870 
     36 H           6.246177   -0.560625   -0.933135 H         1 <1>         0.052870 
@<TRIPOS>BOND
     1    7    1 1    
     2    1   12 1    
     3    8    2 1    
     4    2   23 1    
     5    9    3 2    
     6   13    4 1    
     7    4   24 1    
     8   17    5 1    
     9    5   22 1    
    10   21    6 1    
    11    6   25 1    
    12    7    8 1    
    13   11    7 1    
    14    7   26 1    
    15    8    9 1    
    16    8   27 1    
    17    9   10 1    
    18   12   10 1    
    19   10   13 2    
    20   15   11 1    
    21   11   16 2    
    22   12   14 2    
    23   13   18 1    
    24   14   17 1    
    25   14   28 1    
    26   19   15 2    
    27   15   29 1    
    28   16   20 1    
    29   16   30 1    
    30   17   18 2    
    31   18   31 1    
    32   19   21 1    
    33   19   32 1    
    34   20   21 2    
    35   20   33 1    
    36   22   34 1    
    37   22   35 1    
    38   22   36 1    
@<TRIPOS>SUBSTRUCTURE
     1 ****        1 TEMP              0 ****  ****    0 ROOT 
@<TRIPOS>NORMAL
@<TRIPOS>FF_PBC
FORCE_FIELD_SETUP_FEATURE Force Field Setup information
v1.0  0 0.000000 0.000000 0.000000 0.000000 0.000000 0.000000 NONE 0 0 0 0 1 0 0 0 0 0 0 0 0
