@<TRIPOS>MOLECULE
MOL000607
   22    22     1     1     0
SMALL
GASTEIGER


@<TRIPOS>ATOM
      1 C           0.525428    0.471904   -0.124946 C.ar      1 <1>        -0.022653 
      2 C           1.438114    1.650946   -0.437771 C.2       1 <1>        -0.050385 
      3 C           1.035336   -0.880552    0.236257 C.ar      1 <1>        -0.054111 
      4 C          -0.909693    0.627564   -0.168613 C.ar      1 <1>        -0.054111 
      5 C           0.817563    2.987869   -0.795059 C.3       1 <1>        -0.039703 
      6 C           2.778143    1.559800   -0.411394 C.2       1 <1>        -0.095203 
      7 C           0.156135   -1.949069    0.519671 C.ar      1 <1>        -0.058273 
      8 C          -1.820989   -0.502049    0.131033 C.ar      1 <1>        -0.058273 
      9 C          -1.312242   -1.760429    0.467155 C.ar      1 <1>        -0.050410 
     10 C          -2.270622   -2.915679    0.773550 C.3       1 <1>        -0.039708 
     11 H           2.093811   -1.090905    0.293930 H         1 <1>         0.062360 
     12 H          -1.367188    1.574996   -0.421795 H         1 <1>         0.062360 
     13 H           1.557012    3.775907   -1.003962 H         1 <1>         0.027754 
     14 H           0.196927    2.877395   -1.696923 H         1 <1>         0.027754 
     15 H           0.194258    3.340443    0.040366 H         1 <1>         0.027754 
     16 H           3.409390    2.418167   -0.639192 H         1 <1>         0.053758 
     17 H           3.347453    0.667934   -0.172802 H         1 <1>         0.053758 
     18 H           0.563372   -2.920902    0.779285 H         1 <1>         0.062038 
     19 H          -2.894483   -0.348133    0.088380 H         1 <1>         0.062038 
     20 H          -1.724029   -3.838029    1.019932 H         1 <1>         0.027753 
     21 H          -2.907909   -2.642636    1.628029 H         1 <1>         0.027753 
     22 H          -2.905592   -3.104242   -0.105131 H         1 <1>         0.027753 
@<TRIPOS>BOND
     1    1    2 1    
     2    1    3 1    
     3    1    4 2    
     4    2    5 1    
     5    2    6 2    
     6    3    7 2    
     7    3   11 1    
     8    4    8 1    
     9    4   12 1    
    10    5   13 1    
    11    5   14 1    
    12    5   15 1    
    13    6   16 1    
    14    6   17 1    
    15    7    9 1    
    16    7   18 1    
    17    8    9 2    
    18    8   19 1    
    19    9   10 1    
    20   10   20 1    
    21   10   21 1    
    22   10   22 1    
@<TRIPOS>SUBSTRUCTURE
     1 ****        1 TEMP              0 ****  ****    0 ROOT 
@<TRIPOS>NORMAL
@<TRIPOS>FF_PBC
FORCE_FIELD_SETUP_FEATURE Force Field Setup information
v1.0  0 0.000000 0.000000 0.000000 0.000000 0.000000 0.000000 NONE 0 0 0 0 1 0 0 0 0 0 0 0 0
