@<TRIPOS>MOLECULE
MOL006597
   20    20     1     1     0
SMALL
GASTEIGER


@<TRIPOS>ATOM
      1 C           1.453670   -2.163816   -0.480036 C.ar      1 <1>        -0.029493 
      2 C           2.068289   -0.892913   -0.515673 C.ar      1 <1>        -0.029230 
      3 C           1.246476    0.337736   -0.461016 C.ar      1 <1>         0.076383 
      4 C          -0.177605    0.241011   -0.383193 C.ar      1 <1>        -0.005748 
      5 C          -0.816490   -1.098749   -0.339045 C.ar      1 <1>        -0.025835 
      6 C          -0.019513   -2.280767   -0.386852 C.ar      1 <1>         0.073009 
      7 C          -1.039194    1.507826   -0.348133 C.3       1 <1>         0.060625 
      8 C          -0.912773    2.130542    1.014824 C.2       1 <1>         0.264028 
      9 O           1.878751    1.579484   -0.490935 O.3       1 <1>        -0.359547 
     10 O          -1.984337    2.045773    1.805470 O.3       1 <1>        -0.331021 
     11 O          -0.598508   -3.551622   -0.347277 O.3       1 <1>        -0.359822 
     12 O           0.126720    2.669144    1.364361 O.2       1 <1>        -0.264812 
     13 H           2.057034   -3.064260   -0.520398 H         1 <1>         0.064400 
     14 H           3.147585   -0.809050   -0.583555 H         1 <1>         0.064408 
     15 H          -1.895929   -1.174673   -0.268837 H         1 <1>         0.064685 
     16 H          -0.682553    2.216859   -1.110622 H         1 <1>         0.041556 
     17 H          -2.092278    1.275521   -0.567887 H         1 <1>         0.041556 
     18 H           1.616913    2.126865    0.243683 H         1 <1>         0.217325 
     19 H          -1.830536    2.454077    2.650757 H         1 <1>         0.220218 
     20 H          -1.546221   -3.549386   -0.274936 H         1 <1>         0.217313 
@<TRIPOS>BOND
     1    1    2 2    
     2    1    6 1    
     3    1   13 1    
     4    2    3 1    
     5    2   14 1    
     6    3    4 2    
     7    3    9 1    
     8    4    5 1    
     9    4    7 1    
    10    5    6 2    
    11    5   15 1    
    12    6   11 1    
    13    7    8 1    
    14    7   16 1    
    15    7   17 1    
    16    8   10 1    
    17    8   12 2    
    18    9   18 1    
    19   10   19 1    
    20   11   20 1    
@<TRIPOS>SUBSTRUCTURE
     1 ****        1 TEMP              0 ****  ****    0 ROOT 
@<TRIPOS>NORMAL
@<TRIPOS>FF_PBC
FORCE_FIELD_SETUP_FEATURE Force Field Setup information
v1.0  0 0.000000 0.000000 0.000000 0.000000 0.000000 0.000000 NONE 0 0 0 0 1 0 0 0 0 0 0 0 0
