@<TRIPOS>MOLECULE
MOL004629
   18    18     1     1     0
SMALL
GASTEIGER


@<TRIPOS>ATOM
      1 C           2.391414    0.292989   -0.772434 C.ar      1 <1>        -0.061490 
      2 C           2.872624   -0.591882    0.210087 C.ar      1 <1>        -0.061741 
      3 C           1.920937   -1.380417    1.028060 C.ar      1 <1>        -0.061490 
      4 C           0.531609   -1.248318    0.823410 C.ar      1 <1>        -0.058090 
      5 C           0.014420   -0.320412   -0.212800 C.ar      1 <1>        -0.037870 
      6 C           0.932624    0.436309   -0.991696 C.ar      1 <1>        -0.058090 
      7 C          -1.492753   -0.174121   -0.444112 C.3       1 <1>         0.058126 
      8 C          -1.963406    1.067239    0.262154 C.2       1 <1>         0.263943 
      9 O          -1.770806    2.213241   -0.394636 O.3       1 <1>        -0.331022 
     10 O          -2.477266    1.022041    1.369153 O.2       1 <1>        -0.264813 
     11 H           3.086846    0.872058   -1.371672 H         1 <1>         0.061767 
     12 H           3.940560   -0.698564    0.371311 H         1 <1>         0.061758 
     13 H           2.296867   -2.059878    1.786348 H         1 <1>         0.061767 
     14 H          -0.158318   -1.827397    1.428563 H         1 <1>         0.062041 
     15 H           0.569877    1.122756   -1.749708 H         1 <1>         0.062041 
     16 H          -1.701992   -0.094471   -1.521777 H         1 <1>         0.041473 
     17 H          -2.031624   -1.052016   -0.056774 H         1 <1>         0.041473 
     18 H          -2.079512    2.960845    0.105524 H         1 <1>         0.220218 
@<TRIPOS>BOND
     1    1    2 2    
     2    1    6 1    
     3    1   11 1    
     4    2    3 1    
     5    2   12 1    
     6    3    4 2    
     7    3   13 1    
     8    4    5 1    
     9    4   14 1    
    10    5    6 2    
    11    5    7 1    
    12    6   15 1    
    13    7    8 1    
    14    7   16 1    
    15    7   17 1    
    16    8    9 1    
    17    8   10 2    
    18    9   18 1    
@<TRIPOS>SUBSTRUCTURE
     1 ****        1 TEMP              0 ****  ****    0 ROOT 
@<TRIPOS>NORMAL
@<TRIPOS>FF_PBC
FORCE_FIELD_SETUP_FEATURE Force Field Setup information
v1.0  0 0.000000 0.000000 0.000000 0.000000 0.000000 0.000000 NONE 0 0 0 0 1 0 0 0 0 0 0 0 0
