@<TRIPOS>MOLECULE
MOL004999
   56    59     1     1     0
SMALL
GASTEIGER


@<TRIPOS>ATOM
      1 O          -5.394915    0.164394   -0.096257 O.3       1 <1>        -0.334041 
      2 O          -0.484350    0.352518    0.260205 O.3       1 <1>        -0.306753 
      3 O          -2.885941   -3.900570    0.969762 O.3       1 <1>        -0.358955 
      4 O          -0.200006   -3.549879    1.095237 O.2       1 <1>        -0.286716 
      5 O           2.195499    0.143802   -1.990179 O.3       1 <1>        -0.359076 
      6 O           3.879267    3.165559    2.529581 O.3       1 <1>        -0.357259 
      7 O           5.194973    3.465202    0.076015 O.3       1 <1>        -0.357216 
      8 C          -5.510497    1.574964   -0.373941 C.3       1 <1>         0.088838 
      9 C          -2.967845    0.286237    0.073580 C.ar      1 <1>         0.036119 
     10 C          -1.670369   -0.384819    0.321744 C.ar      1 <1>         0.105962 
     11 C          -4.161893   -0.445105    0.135665 C.ar      1 <1>         0.089359 
     12 C          -1.644478   -1.743822    0.614648 C.ar      1 <1>         0.082813 
     13 C          -4.206053    2.336422   -0.452906 C.2       1 <1>        -0.051916 
     14 C          -3.019634    1.758409   -0.248222 C.2       1 <1>        -0.050857 
     15 C           0.890243   -1.478532    0.801676 C.2       1 <1>         0.034821 
     16 C          -6.234333    1.690450   -1.739202 C.3       1 <1>        -0.031936 
     17 C          -6.371682    2.188573    0.758939 C.3       1 <1>        -0.031936 
     18 C           0.724272   -0.181516    0.494668 C.2       1 <1>         0.099897 
     19 C          -0.290845   -2.355440    0.858718 C.2       1 <1>         0.196974 
     20 C          -2.900231   -2.533470    0.680602 C.ar      1 <1>         0.088369 
     21 C          -4.117955   -1.892375    0.448740 C.ar      1 <1>        -0.000422 
     22 C           2.256586   -2.057747    1.095526 C.3       1 <1>        -0.003097 
     23 C           1.904389    0.756653    0.399499 C.ar      1 <1>         0.038148 
     24 C           2.874902   -2.529541   -0.200493 C.2       1 <1>        -0.080777 
     25 C           2.614508    0.901236   -0.892694 C.ar      1 <1>         0.084794 
     26 C           2.308554    1.486602    1.522287 C.ar      1 <1>        -0.017290 
     27 C           4.069265   -2.202850   -0.726744 C.2       1 <1>        -0.079305 
     28 C           3.453791    2.425680    1.423091 C.ar      1 <1>         0.102991 
     29 C           3.693150    1.795962   -0.985888 C.ar      1 <1>         0.001025 
     30 C           4.122294    2.578626    0.196117 C.ar      1 <1>         0.104684 
     31 C           4.524206   -2.829945   -2.029497 C.3       1 <1>        -0.044040 
     32 C           5.063221   -1.235970   -0.116440 C.3       1 <1>        -0.044040 
     33 H          -4.238620    3.401767   -0.684900 H         1 <1>         0.060053 
     34 H          -2.095967    2.334234   -0.310460 H         1 <1>         0.062283 
     35 H          -7.194847    1.153970   -1.706455 H         1 <1>         0.026052 
     36 H          -6.425494    2.743005   -1.999026 H         1 <1>         0.026052 
     37 H          -5.608544    1.238599   -2.524050 H         1 <1>         0.026052 
     38 H          -5.843151    2.086679    1.719026 H         1 <1>         0.026052 
     39 H          -7.334802    1.660906    0.832247 H         1 <1>         0.026052 
     40 H          -6.566900    3.255967    0.572262 H         1 <1>         0.026052 
     41 H          -5.042323   -2.456776    0.496550 H         1 <1>         0.066951 
     42 H           2.150150   -2.943943    1.740683 H         1 <1>         0.035759 
     43 H           2.857497   -1.345955    1.673464 H         1 <1>         0.035759 
     44 H           2.244109   -3.234274   -0.745403 H         1 <1>         0.057473 
     45 H           1.778243    1.364017    2.460297 H         1 <1>         0.065156 
     46 H          -2.009326   -4.251336    1.092652 H         1 <1>         0.217342 
     47 H           4.228383    1.926528   -1.919644 H         1 <1>         0.067005 
     48 H           5.488918   -3.334493   -1.868194 H         1 <1>         0.027427 
     49 H           3.819742   -3.573815   -2.431534 H         1 <1>         0.027427 
     50 H           4.658692   -2.046638   -2.790256 H         1 <1>         0.027427 
     51 H           5.510698   -0.617100   -0.908575 H         1 <1>         0.027427 
     52 H           4.646392   -0.543648    0.623646 H         1 <1>         0.027427 
     53 H           5.866052   -1.815622    0.362677 H         1 <1>         0.027427 
     54 H           2.667164    0.321235   -2.796030 H         1 <1>         0.217340 
     55 H           3.377175    2.996248    3.318709 H         1 <1>         0.217422 
     56 H           5.361066    3.932739    0.889079 H         1 <1>         0.217422 
@<TRIPOS>BOND
     1    1    8 1    
     2   11    1 1    
     3    2   10 1    
     4   18    2 1    
     5   20    3 1    
     6    3   46 1    
     7   19    4 2    
     8   25    5 1    
     9    5   54 1    
    10   28    6 1    
    11    6   55 1    
    12   30    7 1    
    13    7   56 1    
    14   13    8 1    
    15    8   16 1    
    16    8   17 1    
    17   10    9 1    
    18    9   11 2    
    19    9   14 1    
    20   10   12 2    
    21   11   21 1    
    22   19   12 1    
    23   12   20 1    
    24   14   13 2    
    25   13   33 1    
    26   14   34 1    
    27   18   15 2    
    28   15   19 1    
    29   15   22 1    
    30   16   35 1    
    31   16   36 1    
    32   16   37 1    
    33   17   38 1    
    34   17   39 1    
    35   17   40 1    
    36   23   18 1    
    37   20   21 2    
    38   21   41 1    
    39   22   24 1    
    40   22   42 1    
    41   22   43 1    
    42   23   25 1    
    43   26   23 2    
    44   24   27 2    
    45   24   44 1    
    46   25   29 2    
    47   28   26 1    
    48   26   45 1    
    49   27   31 1    
    50   27   32 1    
    51   28   30 2    
    52   29   30 1    
    53   29   47 1    
    54   31   48 1    
    55   31   49 1    
    56   31   50 1    
    57   32   51 1    
    58   32   52 1    
    59   32   53 1    
@<TRIPOS>SUBSTRUCTURE
     1 ****        2 TEMP              0 ****  ****    0 ROOT 
@<TRIPOS>NORMAL
@<TRIPOS>FF_PBC
FORCE_FIELD_SETUP_FEATURE Force Field Setup information
v1.0  0 0.000000 0.000000 0.000000 0.000000 0.000000 0.000000 NONE 0 0 0 0 1 0 0 0 0 0 0 0 0
