@<TRIPOS>MOLECULE
MOL012971
  102   107     1     1     0
SMALL
GASTEIGER


@<TRIPOS>ATOM
      1 O          -4.523510   -1.162838   -1.146295 O.3       1 <1>        -0.305420 
      2 O          -4.370693    0.604156    0.826277 O.3       1 <1>        -0.389175 
      3 O           6.045054    2.765355   -0.554501 O.3       1 <1>        -0.330843 
      4 O           7.033460    3.325133    1.295870 O.2       1 <1>        -0.264547 
      5 O          -5.887082   -1.112188   -2.858681 O.2       1 <1>        -0.259868 
      6 O          -6.899026   -2.958746   -8.325322 O.3       1 <1>        -0.359832 
      7 C           2.718525   -0.112548    1.353996 C.3       1 <1>        -0.020684 
      8 C           1.373158   -0.843009    0.896007 C.3       1 <1>        -0.022825 
      9 C           2.439139    1.432483    1.693428 C.3       1 <1>        -0.021819 
     10 C           0.254793   -0.633949    2.014929 C.3       1 <1>        -0.029341 
     11 C           3.741561    2.365064    1.549196 C.3       1 <1>        -0.013958 
     12 C          -1.175298   -1.280367    1.737431 C.3       1 <1>        -0.022914 
     13 C           5.185641    1.763334    1.595914 C.3       1 <1>         0.059826 
     14 C           1.695653    1.364633    3.066692 C.3       1 <1>        -0.046522 
     15 C          -1.207885   -2.356623    0.543851 C.3       1 <1>        -0.027653 
     16 C           3.902650   -0.121155    0.324156 C.3       1 <1>        -0.045631 
     17 C           0.298911    0.672081    2.920245 C.3       1 <1>        -0.048672 
     18 C           1.462222   -2.418030    0.802733 C.3       1 <1>        -0.046551 
     19 C           5.267975    0.335668    0.947356 C.3       1 <1>        -0.037506 
     20 C           0.171221   -3.051272    0.186463 C.3       1 <1>        -0.048616 
     21 C           3.914860    3.608236    2.475993 C.3       1 <1>        -0.016070 
     22 C          -2.330676   -2.306660   -0.614660 C.3       1 <1>        -0.002301 
     23 C           3.307170   -0.988633    2.536255 C.3       1 <1>        -0.058547 
     24 C          -2.175974   -0.107355    1.501351 C.3       1 <1>        -0.018421 
     25 C           1.021324   -0.425247   -0.580794 C.3       1 <1>        -0.058776 
     26 C           1.389280    2.219744    0.792929 C.3       1 <1>        -0.058745 
     27 C           5.561221    1.914058    3.120937 C.3       1 <1>        -0.037487 
     28 C           4.592237    2.984507    3.717920 C.3       1 <1>        -0.045251 
     29 C          -1.666576   -1.968159    3.082259 C.3       1 <1>        -0.058938 
     30 C          -3.190462   -0.997065   -0.594380 C.3       1 <1>         0.099514 
     31 C          -3.499905   -0.546305    0.848852 C.3       1 <1>         0.082940 
     32 C           6.146442    2.661970    0.780801 C.2       1 <1>         0.266111 
     33 C           2.820801    4.653504    2.610070 C.2       1 <1>        -0.076301 
     34 C          -3.318766   -3.524193   -0.511418 C.3       1 <1>        -0.057079 
     35 C          -1.783354   -2.402732   -2.082041 C.3       1 <1>        -0.057079 
     36 C           2.489251    5.451346    1.357664 C.3       1 <1>        -0.043768 
     37 C           2.193257    4.924190    3.760884 C.2       1 <1>        -0.099437 
     38 C          -4.830843   -0.729503   -2.387879 C.2       1 <1>         0.286950 
     39 C          -3.995055    0.213176   -3.170021 C.2       1 <1>         0.010502 
     40 C          -3.923985    0.266894   -4.509227 C.2       1 <1>        -0.048935 
     41 C          -4.668892   -0.635777   -5.470046 C.ar      1 <1>        -0.024693 
     42 C          -5.235395   -0.013012   -6.690249 C.ar      1 <1>        -0.052160 
     43 C          -4.842975   -2.023653   -5.264243 C.ar      1 <1>        -0.052160 
     44 C          -5.957966   -0.778396   -7.613723 C.ar      1 <1>        -0.031383 
     45 C          -5.610445   -2.835566   -6.237392 C.ar      1 <1>        -0.031383 
     46 C          -6.163352   -2.226219   -7.389394 C.ar      1 <1>         0.072617 
     47 H          -5.204090    0.405990    0.406110 H         1 <1>         0.209889 
     48 H           5.367280    2.259610   -0.982396 H         1 <1>         0.220226 
     49 H          -7.076303   -3.853601   -8.063125 H         1 <1>         0.217313 
     50 H           0.597404   -1.297837    2.805443 H         1 <1>         0.031156 
     51 H           3.729925    2.774365    0.533781 H         1 <1>         0.032213 
     52 H           1.517979    2.374108    3.459498 H         1 <1>         0.027087 
     53 H           2.268498    0.862010    3.852538 H         1 <1>         0.027087 
     54 H          -1.621515   -3.202464    1.105573 H         1 <1>         0.031213 
     55 H           4.042566   -1.124410   -0.106335 H         1 <1>         0.027115 
     56 H           3.689516    0.546777   -0.519722 H         1 <1>         0.027115 
     57 H          -0.046031    0.464966    3.951046 H         1 <1>         0.026845 
     58 H          -0.402781    1.444600    2.585344 H         1 <1>         0.026845 
     59 H           2.327456   -2.725778    0.193952 H         1 <1>         0.027087 
     60 H           1.623194   -2.924761    1.768282 H         1 <1>         0.027087 
     61 H           6.008282    0.298024    0.130294 H         1 <1>         0.027568 
     62 H           5.689773   -0.380030    1.665805 H         1 <1>         0.027568 
     63 H           0.325362   -3.051842   -0.895072 H         1 <1>         0.026846 
     64 H           0.197512   -4.132193    0.432552 H         1 <1>         0.026846 
     65 H           4.704761    4.256922    2.056673 H         1 <1>         0.034857 
     66 H           4.036149   -0.447805    3.124760 H         1 <1>         0.023541 
     67 H           3.806956   -1.892473    2.151886 H         1 <1>         0.023541 
     68 H           2.635607   -1.354072    3.314104 H         1 <1>         0.023541 
     69 H          -2.457827    0.377581    2.450484 H         1 <1>         0.029633 
     70 H          -1.728549    0.668382    0.863703 H         1 <1>         0.029633 
     71 H           1.461930    0.489345   -0.966741 H         1 <1>         0.023533 
     72 H          -0.061750   -0.324947   -0.690714 H         1 <1>         0.023533 
     73 H           1.400726   -1.140956   -1.322945 H         1 <1>         0.023533 
     74 H           1.104993    3.155191    1.288727 H         1 <1>         0.023533 
     75 H           0.437361    1.723380    0.602850 H         1 <1>         0.023533 
     76 H           1.733259    2.529251   -0.203919 H         1 <1>         0.023533 
     77 H           6.603387    2.230960    3.275176 H         1 <1>         0.027568 
     78 H           5.497300    1.002054    3.721369 H         1 <1>         0.027568 
     79 H           5.111823    3.744685    4.328358 H         1 <1>         0.027135 
     80 H           3.841910    2.498645    4.357635 H         1 <1>         0.027135 
     81 H          -1.632734   -1.281757    3.940736 H         1 <1>         0.023526 
     82 H          -2.702112   -2.337238    3.017623 H         1 <1>         0.023526 
     83 H          -1.028509   -2.833292    3.340456 H         1 <1>         0.023526 
     84 H          -2.603700   -0.183358   -1.030297 H         1 <1>         0.063344 
     85 H          -3.999086   -1.347435    1.420553 H         1 <1>         0.061951 
     86 H          -4.047544   -3.543062   -1.334463 H         1 <1>         0.023589 
     87 H          -2.760617   -4.471456   -0.558393 H         1 <1>         0.023589 
     88 H          -3.885535   -3.513543    0.428596 H         1 <1>         0.023589 
     89 H          -2.587678   -2.215913   -2.804739 H         1 <1>         0.023589 
     90 H          -1.007229   -1.660146   -2.299426 H         1 <1>         0.023589 
     91 H          -1.393956   -3.402690   -2.318928 H         1 <1>         0.023589 
     92 H           3.157844    6.322793    1.307493 H         1 <1>         0.027436 
     93 H           2.630590    4.879441    0.431382 H         1 <1>         0.027436 
     94 H           1.451430    5.816980    1.364178 H         1 <1>         0.027436 
     95 H           2.400050    4.406205    4.695356 H         1 <1>         0.053440 
     96 H           1.435328    5.705891    3.803773 H         1 <1>         0.053440 
     97 H          -3.403932    0.976613   -2.666216 H         1 <1>         0.067735 
     98 H          -3.299532    1.031641   -4.976160 H         1 <1>         0.062525 
     99 H          -5.090467    1.047883   -6.864204 H         1 <1>         0.062423 
    100 H          -4.420994   -2.513661   -4.395711 H         1 <1>         0.062423 
    101 H          -6.370766   -0.310573   -8.502239 H         1 <1>         0.064338 
    102 H          -5.743972   -3.898872   -6.057879 H         1 <1>         0.064338 
@<TRIPOS>BOND
     1    1   30 1    
     2   38    1 1    
     3   31    2 1    
     4    2   47 1    
     5   32    3 1    
     6    3   48 1    
     7   32    4 2    
     8   38    5 2    
     9   46    6 1    
    10    6   49 1    
    11    8    7 1    
    12    7    9 1    
    13    7   16 1    
    14    7   23 1    
    15   10    8 1    
    16   18    8 1    
    17    8   25 1    
    18    9   11 1    
    19   14    9 1    
    20    9   26 1    
    21   12   10 1    
    22   10   17 1    
    23   10   50 1    
    24   11   13 1    
    25   11   21 1    
    26   11   51 1    
    27   15   12 1    
    28   24   12 1    
    29   12   29 1    
    30   19   13 1    
    31   13   27 1    
    32   13   32 1    
    33   17   14 1    
    34   14   52 1    
    35   14   53 1    
    36   15   20 1    
    37   22   15 1    
    38   15   54 1    
    39   16   19 1    
    40   16   55 1    
    41   16   56 1    
    42   17   57 1    
    43   17   58 1    
    44   20   18 1    
    45   18   59 1    
    46   18   60 1    
    47   19   61 1    
    48   19   62 1    
    49   20   63 1    
    50   20   64 1    
    51   21   28 1    
    52   21   33 1    
    53   21   65 1    
    54   30   22 1    
    55   22   34 1    
    56   22   35 1    
    57   23   66 1    
    58   23   67 1    
    59   23   68 1    
    60   31   24 1    
    61   24   69 1    
    62   24   70 1    
    63   25   71 1    
    64   25   72 1    
    65   25   73 1    
    66   26   74 1    
    67   26   75 1    
    68   26   76 1    
    69   28   27 1    
    70   27   77 1    
    71   27   78 1    
    72   28   79 1    
    73   28   80 1    
    74   29   81 1    
    75   29   82 1    
    76   29   83 1    
    77   30   31 1    
    78   30   84 1    
    79   31   85 1    
    80   33   36 1    
    81   33   37 2    
    82   34   86 1    
    83   34   87 1    
    84   34   88 1    
    85   35   89 1    
    86   35   90 1    
    87   35   91 1    
    88   36   92 1    
    89   36   93 1    
    90   36   94 1    
    91   37   95 1    
    92   37   96 1    
    93   39   38 1    
    94   40   39 2    
    95   39   97 1    
    96   41   40 1    
    97   40   98 1    
    98   42   41 1    
    99   41   43 2    
   100   44   42 2    
   101   42   99 1    
   102   43   45 1    
   103   43  100 1    
   104   44   46 1    
   105   44  101 1    
   106   45   46 2    
   107   45  102 1    
@<TRIPOS>SUBSTRUCTURE
     1 ****        7 TEMP              0 ****  ****    0 ROOT 
@<TRIPOS>NORMAL
@<TRIPOS>FF_PBC
FORCE_FIELD_SETUP_FEATURE Force Field Setup information
v1.0  0 0.000000 0.000000 0.000000 0.000000 0.000000 0.000000 NONE 0 0 0 0 1 0 0 0 0 0 0 0 0
