@<TRIPOS>MOLECULE
MOL002173
   32    33     1     1     0
SMALL
GASTEIGER


@<TRIPOS>ATOM
      1 C          -1.521200   -0.258144   -0.335643 C.3       1 <1>        -0.028561 
      2 C          -2.439753   -0.534638   -1.560933 C.3       1 <1>        -0.048964 
      3 C          -2.526259   -2.054056   -1.874949 C.3       1 <1>        -0.048589 
      4 C          -1.130545   -2.594687   -2.289089 C.3       1 <1>        -0.021964 
      5 C          -0.137262   -2.138739   -1.260518 C.2       1 <1>         0.025770 
      6 C          -0.299541   -1.136094   -0.405840 C.2       1 <1>        -0.031765 
      7 C           1.184642   -2.642902   -0.920621 C.2       1 <1>         0.290380 
      8 O           1.801519   -1.996173    0.066388 O.3       1 <1>        -0.303928 
      9 C           0.881015   -0.976015    0.530173 C.3       1 <1>         0.090116 
     10 O           1.696540   -3.586560   -1.499137 O.2       1 <1>        -0.259557 
     11 C           1.582329    0.408649    0.482633 C.3       1 <1>        -0.022113 
     12 C           1.077649    1.378645    1.588677 C.3       1 <1>        -0.050640 
     13 C           1.738712    2.777516    1.453954 C.3       1 <1>        -0.055821 
     14 C           1.247645    3.742714    2.564300 C.3       1 <1>        -0.065275 
     15 H           0.583988   -1.243084    1.557226 H         1 <1>         0.064937 
     16 H          -2.050468   -0.489265    0.602237 H         1 <1>         0.031100 
     17 H          -1.250144    0.807930   -0.340905 H         1 <1>         0.031100 
     18 H          -3.445679   -0.125535   -1.367373 H         1 <1>         0.026841 
     19 H          -2.031876   -0.023777   -2.449566 H         1 <1>         0.026841 
     20 H          -2.881375   -2.585476   -0.976268 H         1 <1>         0.026851 
     21 H          -3.246573   -2.236380   -2.690018 H         1 <1>         0.026851 
     22 H          -1.138382   -3.694380   -2.352467 H         1 <1>         0.031501 
     23 H          -0.831093   -2.184697   -3.266448 H         1 <1>         0.031501 
     24 H           2.661669    0.255640    0.647213 H         1 <1>         0.029352 
     25 H           1.454440    0.845513   -0.520526 H         1 <1>         0.029352 
     26 H          -0.014811    1.492415    1.536511 H         1 <1>         0.026610 
     27 H           1.323970    0.957884    2.577877 H         1 <1>         0.026610 
     28 H           2.834960    2.677432    1.521793 H         1 <1>         0.026266 
     29 H           1.492084    3.208192    0.469004 H         1 <1>         0.026266 
     30 H           1.727081    4.727820    2.449581 H         1 <1>         0.022978 
     31 H           0.156155    3.875656    2.503251 H         1 <1>         0.022978 
     32 H           1.500359    3.344203    3.559280 H         1 <1>         0.022978 
@<TRIPOS>BOND
     1    1    2 1    
     2    1    6 1    
     3    1   16 1    
     4    1   17 1    
     5    2    3 1    
     6    2   18 1    
     7    2   19 1    
     8    3    4 1    
     9    3   20 1    
    10    3   21 1    
    11    4    5 1    
    12    4   22 1    
    13    4   23 1    
    14    5    6 2    
    15    5    7 1    
    16    6    9 1    
    17    7    8 1    
    18    7   10 2    
    19    8    9 1    
    20    9   11 1    
    21    9   15 1    
    22   11   12 1    
    23   11   24 1    
    24   11   25 1    
    25   12   13 1    
    26   12   26 1    
    27   12   27 1    
    28   13   14 1    
    29   13   28 1    
    30   13   29 1    
    31   14   30 1    
    32   14   31 1    
    33   14   32 1    
@<TRIPOS>SUBSTRUCTURE
     1 ****        1 TEMP              0 ****  ****    0 ROOT 
@<TRIPOS>NORMAL
@<TRIPOS>FF_PBC
FORCE_FIELD_SETUP_FEATURE Force Field Setup information
v1.0  0 0.000000 0.000000 0.000000 0.000000 0.000000 0.000000 NONE 0 0 0 0 1 0 0 0 0 0 0 0 0
