@<TRIPOS>MOLECULE
MOL000036
   39    40     1     1     0
SMALL
GASTEIGER


@<TRIPOS>ATOM
      1 C           0.721433    0.680631   -0.601255 C.3       1 <1>        -0.029054 
      2 C          -0.203281    1.925185   -0.334350 C.3       1 <1>        -0.045500 
      3 C          -1.304324    1.811621    0.768214 C.3       1 <1>        -0.031719 
      4 C          -2.083548    0.512857    0.746234 C.2       1 <1>        -0.076511 
      5 C          -2.293879   -0.120345   -0.418496 C.2       1 <1>        -0.084727 
      6 C          -2.758000   -1.544051   -0.574550 C.3       1 <1>        -0.030830 
      7 C          -1.507450   -2.401549   -0.218190 C.3       1 <1>        -0.028282 
      8 C          -0.235477   -1.795502   -0.804504 C.2       1 <1>        -0.072939 
      9 C           0.478102   -0.727979    0.024593 C.3       1 <1>        -0.016326 
     10 C           2.013778   -0.875716    0.202392 C.3       1 <1>        -0.040797 
     11 C           2.149472    0.661597    0.024088 C.3       1 <1>        -0.030957 
     12 C           0.204977   -2.189767   -2.007731 C.2       1 <1>        -0.099165 
     13 C           2.282479    1.359325    1.409158 C.3       1 <1>        -0.059523 
     14 C           3.284415    1.102951   -0.940421 C.3       1 <1>        -0.059523 
     15 C          -2.521127   -0.004048    2.103009 C.3       1 <1>        -0.043787 
     16 H           0.823823    0.553849   -1.692489 H         1 <1>         0.031176 
     17 H          -0.718673    2.186416   -1.273275 H         1 <1>         0.027130 
     18 H           0.428827    2.801166   -0.125506 H         1 <1>         0.027130 
     19 H          -0.789250    1.895982    1.737185 H         1 <1>         0.030998 
     20 H          -2.012651    2.652962    0.700611 H         1 <1>         0.030998 
     21 H          -2.052854    0.361028   -1.364223 H         1 <1>         0.057163 
     22 H          -3.637453   -1.805445    0.032067 H         1 <1>         0.031044 
     23 H          -3.026660   -1.725063   -1.629358 H         1 <1>         0.031044 
     24 H          -1.666102   -3.426842   -0.590433 H         1 <1>         0.031295 
     25 H          -1.406592   -2.482550    0.875300 H         1 <1>         0.031295 
     26 H           0.085724   -0.657946    1.048041 H         1 <1>         0.034853 
     27 H           2.342415   -1.276103    1.175873 H         1 <1>         0.027630 
     28 H           2.498554   -1.434137   -0.611588 H         1 <1>         0.027630 
     29 H           1.096912   -1.777628   -2.475427 H         1 <1>         0.053449 
     30 H          -0.329685   -2.948682   -2.577838 H         1 <1>         0.053449 
     31 H           2.281770    2.453649    1.303435 H         1 <1>         0.023508 
     32 H           3.238914    1.068228    1.869364 H         1 <1>         0.023508 
     33 H           1.476061    1.070295    2.097339 H         1 <1>         0.023508 
     34 H           3.200118    2.182664   -1.135446 H         1 <1>         0.023508 
     35 H           4.263981    0.898603   -0.482520 H         1 <1>         0.023508 
     36 H           3.235749    0.569630   -1.902068 H         1 <1>         0.023508 
     37 H          -1.645664   -0.217441    2.733945 H         1 <1>         0.027436 
     38 H          -3.136108   -0.911275    2.068536 H         1 <1>         0.027436 
     39 H          -3.117548    0.778782    2.595181 H         1 <1>         0.027436 
@<TRIPOS>BOND
     1    1    2 1    
     2    1    9 1    
     3    1   11 1    
     4    1   16 1    
     5    2    3 1    
     6    2   17 1    
     7    2   18 1    
     8    3    4 1    
     9    3   19 1    
    10    3   20 1    
    11    4    5 2    
    12    4   15 1    
    13    5    6 1    
    14    5   21 1    
    15    6    7 1    
    16    6   22 1    
    17    6   23 1    
    18    7    8 1    
    19    7   24 1    
    20    7   25 1    
    21    8    9 1    
    22    8   12 2    
    23    9   10 1    
    24    9   26 1    
    25   10   11 1    
    26   10   27 1    
    27   10   28 1    
    28   11   13 1    
    29   11   14 1    
    30   12   29 1    
    31   12   30 1    
    32   13   31 1    
    33   13   32 1    
    34   13   33 1    
    35   14   34 1    
    36   14   35 1    
    37   14   36 1    
    38   15   37 1    
    39   15   38 1    
    40   15   39 1    
@<TRIPOS>SUBSTRUCTURE
     1 ****        1 TEMP              0 ****  ****    0 ROOT 
@<TRIPOS>NORMAL
@<TRIPOS>FF_PBC
FORCE_FIELD_SETUP_FEATURE Force Field Setup information
v1.0  0 0.000000 0.000000 0.000000 0.000000 0.000000 0.000000 NONE 0 0 0 0 1 0 0 0 0 0 0 0 0
