@<TRIPOS>MOLECULE
MOL004848
   48    49     1     1     0
SMALL
GASTEIGER


@<TRIPOS>ATOM
      1 O          -4.983696   -0.382661   -0.172717 O.3       1 <1>        -0.359450 
      2 O          -1.446014   -3.776308    0.036882 O.3       1 <1>        -0.347243 
      3 O           3.314237   -2.568322    0.577379 O.2       1 <1>        -0.287193 
      4 O           5.759508   -2.259862   -0.342364 O.3       1 <1>        -0.359040 
      5 O           7.447388    2.370850   -0.316781 O.3       1 <1>        -0.359749 
      6 C          -3.189393    1.793951    0.331274 C.3       1 <1>         0.010288 
      7 C          -2.693610    0.330942    0.269522 C.ar      1 <1>        -0.007592 
      8 C          -2.040547    2.844057    0.317622 C.3       1 <1>        -0.052228 
      9 C          -3.993981    1.970993    1.651217 C.3       1 <1>        -0.052228 
     10 C          -3.979522    2.045353   -0.940454 C.2       1 <1>        -0.081090 
     11 C          -1.266301   -0.040306    0.465284 C.ar      1 <1>        -0.045685 
     12 C          -3.636883   -0.703861    0.013011 C.ar      1 <1>         0.079036 
     13 C          -0.839610   -1.384260    0.370821 C.ar      1 <1>         0.005510 
     14 C          -3.187746   -2.116856   -0.056473 C.ar      1 <1>        -0.001047 
     15 C          -1.843673   -2.443827    0.112848 C.ar      1 <1>         0.085384 
     16 C           0.611647   -1.783736    0.532389 C.2       1 <1>        -0.048484 
     17 C          -5.225659    2.533509   -1.007399 C.2       1 <1>        -0.101811 
     18 C           1.638394   -0.996937    0.179255 C.2       1 <1>        -0.013628 
     19 C           3.050038   -1.399694    0.338470 C.2       1 <1>         0.188544 
     20 C           4.198086   -0.422202    0.189419 C.ar      1 <1>         0.051478 
     21 C          -0.994293   -4.166476   -1.268620 C.3       1 <1>         0.043052 
     22 C           5.502100   -0.898512   -0.154603 C.ar      1 <1>         0.085798 
     23 C           3.996599    1.036236    0.396929 C.ar      1 <1>        -0.046025 
     24 C           6.617366    0.062921   -0.328403 C.ar      1 <1>        -0.001470 
     25 C           5.063446    1.934921    0.227111 C.ar      1 <1>        -0.031105 
     26 C           6.410471    1.447925   -0.149410 C.ar      1 <1>         0.075057 
     27 H          -2.468260    3.856030    0.243575 H         1 <1>         0.024112 
     28 H          -4.318136    3.015290    1.780055 H         1 <1>         0.024112 
     29 H          -3.356465    1.705686    2.508134 H         1 <1>         0.024112 
     30 H          -1.372536    2.693286   -0.544806 H         1 <1>         0.024112 
     31 H          -1.446909    2.804667    1.243274 H         1 <1>         0.024112 
     32 H          -4.882400    1.322487    1.679910 H         1 <1>         0.024112 
     33 H          -3.479616    1.808194   -1.881795 H         1 <1>         0.057493 
     34 H          -0.534109    0.719446    0.693342 H         1 <1>         0.062802 
     35 H          -3.902987   -2.910109   -0.243130 H         1 <1>         0.066937 
     36 H           0.810450   -2.771327    0.949636 H         1 <1>         0.062539 
     37 H          -5.702454    2.681128   -1.977811 H         1 <1>         0.053201 
     38 H          -5.814336    2.802655   -0.132102 H         1 <1>         0.053201 
     39 H          -5.530737   -1.127158   -0.392838 H         1 <1>         0.217326 
     40 H           1.445026   -0.024252   -0.266534 H         1 <1>         0.065603 
     41 H          -1.800668   -4.060583   -2.011154 H         1 <1>         0.052870 
     42 H          -0.128686   -3.567335   -1.591253 H         1 <1>         0.052870 
     43 H          -0.691764   -5.222809   -1.218357 H         1 <1>         0.052870 
     44 H           3.028365    1.424693    0.691685 H         1 <1>         0.062620 
     45 H           7.594833   -0.320501   -0.598401 H         1 <1>         0.066921 
     46 H           4.910615    2.997885    0.376639 H         1 <1>         0.064341 
     47 H           5.067119   -2.837508   -0.035395 H         1 <1>         0.217341 
     48 H           8.286301    1.983193   -0.542784 H         1 <1>         0.217315 
@<TRIPOS>BOND
     1   12    1 1    
     2    1   39 1    
     3   15    2 1    
     4    2   21 1    
     5   19    3 2    
     6   22    4 1    
     7    4   47 1    
     8   26    5 1    
     9    5   48 1    
    10    7    6 1    
    11    6    8 1    
    12    6    9 1    
    13    6   10 1    
    14   11    7 1    
    15    7   12 2    
    16    8   27 1    
    17    8   30 1    
    18    8   31 1    
    19    9   28 1    
    20    9   29 1    
    21    9   32 1    
    22   10   17 2    
    23   10   33 1    
    24   13   11 2    
    25   11   34 1    
    26   14   12 1    
    27   13   15 1    
    28   16   13 1    
    29   15   14 2    
    30   14   35 1    
    31   18   16 2    
    32   16   36 1    
    33   17   37 1    
    34   17   38 1    
    35   19   18 1    
    36   18   40 1    
    37   20   19 1    
    38   22   20 2    
    39   20   23 1    
    40   21   41 1    
    41   21   42 1    
    42   21   43 1    
    43   24   22 1    
    44   23   25 2    
    45   23   44 1    
    46   24   26 2    
    47   24   45 1    
    48   25   26 1    
    49   25   46 1    
@<TRIPOS>SUBSTRUCTURE
     1 ****        6 TEMP              0 ****  ****    0 ROOT 
@<TRIPOS>NORMAL
@<TRIPOS>FF_PBC
FORCE_FIELD_SETUP_FEATURE Force Field Setup information
v1.0  0 0.000000 0.000000 0.000000 0.000000 0.000000 0.000000 NONE 0 0 0 0 1 0 0 0 0 0 0 0 0
