@<TRIPOS>MOLECULE
MOL004883
   44    46     1     1     0
SMALL
GASTEIGER


@<TRIPOS>ATOM
      1 C          -6.079792   -1.285044   -0.048433 C.ar      1 <1>         0.077519 
      2 C          -5.539677    0.043841   -0.425876 C.ar      1 <1>        -0.001302 
      3 C          -4.166001    0.212369   -0.699027 C.ar      1 <1>         0.088332 
      4 C          -3.261296   -0.960628   -0.579912 C.ar      1 <1>         0.082517 
      5 C          -3.757402   -2.195327   -0.153624 C.ar      1 <1>         0.098059 
      6 C          -5.205909   -2.376646    0.082509 C.ar      1 <1>        -0.000556 
      7 C          -1.786118   -0.918374   -0.884545 C.2       1 <1>         0.200654 
      8 C          -0.946210   -1.994817   -0.324510 C.2       1 <1>         0.055114 
      9 C          -1.560152   -3.112345    0.100723 C.2       1 <1>         0.058337 
     10 O          -2.891221   -3.269979    0.061530 O.3       1 <1>        -0.315267 
     11 O          -1.329285   -0.032096   -1.582696 O.2       1 <1>        -0.286388 
     12 C           0.564095   -1.857304   -0.212454 C.ar      1 <1>         0.017863 
     13 C           1.414578   -3.073591   -0.334484 C.ar      1 <1>        -0.048941 
     14 C           2.800419   -2.991068   -0.177489 C.ar      1 <1>        -0.030923 
     15 C           3.448489   -1.682774    0.071029 C.ar      1 <1>         0.078519 
     16 C           2.680143   -0.510150    0.157445 C.ar      1 <1>         0.016309 
     17 C           1.194132   -0.604326    0.025994 C.ar      1 <1>         0.086342 
     18 O          -3.647563    1.459158   -1.059807 O.3       1 <1>        -0.358955 
     19 O          -7.452133   -1.426292    0.161856 O.3       1 <1>        -0.359667 
     20 O           0.426174    0.552111    0.155892 O.3       1 <1>        -0.358859 
     21 C           3.473920    0.797733    0.383224 C.3       1 <1>        -0.004343 
     22 O           4.832741   -1.624774    0.207757 O.3       1 <1>        -0.359468 
     23 C           2.720772    2.034817    0.818089 C.2       1 <1>        -0.080815 
     24 C           3.030947    3.297276    0.474248 C.2       1 <1>        -0.079306 
     25 C           2.137947    4.453076    0.875173 C.3       1 <1>        -0.044040 
     26 C           4.258057    3.699350   -0.321036 C.3       1 <1>        -0.044040 
     27 H          -6.223676    0.885193   -0.487336 H         1 <1>         0.066923 
     28 H          -5.575180   -3.361008    0.350449 H         1 <1>         0.066947 
     29 H          -1.039434   -3.967274    0.520378 H         1 <1>         0.089750 
     30 H           0.978669   -4.046338   -0.551544 H         1 <1>         0.062523 
     31 H           3.415838   -3.881838   -0.250670 H         1 <1>         0.064349 
     32 H          -4.184420    2.192643   -0.775413 H         1 <1>         0.217342 
     33 H          -7.736188   -2.325059    0.309098 H         1 <1>         0.217316 
     34 H          -0.297227    0.443863    0.764250 H         1 <1>         0.217351 
     35 H           4.212427    0.607327    1.180175 H         1 <1>         0.035721 
     36 H           4.007676    0.993781   -0.561950 H         1 <1>         0.035721 
     37 H           5.241622   -1.747390   -0.642204 H         1 <1>         0.217326 
     38 H           1.866562    1.873722    1.473903 H         1 <1>         0.057473 
     39 H           1.160680    4.152773    1.289992 H         1 <1>         0.027427 
     40 H           2.664393    5.065162    1.623896 H         1 <1>         0.027427 
     41 H           1.946293    5.070333   -0.017685 H         1 <1>         0.027427 
     42 H           5.115249    3.023010   -0.190228 H         1 <1>         0.027427 
     43 H           4.000195    3.751513   -1.388511 H         1 <1>         0.027427 
     44 H           4.588749    4.697893    0.004368 H         1 <1>         0.027427 
@<TRIPOS>BOND
     1    1    2 1    
     2    1    6 2    
     3    1   19 1    
     4    2    3 2    
     5    2   27 1    
     6    3    4 1    
     7    3   18 1    
     8    4    5 2    
     9    4    7 1    
    10    5    6 1    
    11    5   10 1    
    12    6   28 1    
    13    7    8 1    
    14    7   11 2    
    15    8    9 2    
    16    8   12 1    
    17    9   10 1    
    18    9   29 1    
    19   12   13 1    
    20   12   17 2    
    21   13   14 2    
    22   13   30 1    
    23   14   15 1    
    24   14   31 1    
    25   15   16 2    
    26   15   22 1    
    27   16   17 1    
    28   16   21 1    
    29   17   20 1    
    30   18   32 1    
    31   19   33 1    
    32   20   34 1    
    33   21   23 1    
    34   21   35 1    
    35   21   36 1    
    36   22   37 1    
    37   23   24 2    
    38   23   38 1    
    39   24   25 1    
    40   24   26 1    
    41   25   39 1    
    42   25   40 1    
    43   25   41 1    
    44   26   42 1    
    45   26   43 1    
    46   26   44 1    
@<TRIPOS>SUBSTRUCTURE
     1 ****        1 TEMP              0 ****  ****    0 ROOT 
@<TRIPOS>NORMAL
@<TRIPOS>FF_PBC
FORCE_FIELD_SETUP_FEATURE Force Field Setup information
v1.0  0 0.000000 0.000000 0.000000 0.000000 0.000000 0.000000 NONE 0 0 0 0 1 0 0 0 0 0 0 0 0
