@<TRIPOS>MOLECULE
MOL000671
   31    31     1     1     0
SMALL
GASTEIGER


@<TRIPOS>ATOM
      1 C          -0.762467    0.103670   -0.598028 C.3       1 <1>        -0.012619 
      2 C           0.063469   -1.216651   -0.681162 C.3       1 <1>         0.058534 
      3 C           0.249942    1.286418   -0.693782 C.3       1 <1>        -0.047390 
      4 C          -1.754981    0.188586    0.621274 C.3       1 <1>        -0.041547 
      5 C           1.114602   -1.300766    0.462258 C.3       1 <1>        -0.023996 
      6 O           0.690414   -1.283084   -1.976117 O.3       1 <1>        -0.391495 
      7 C           1.284116    1.256355    0.464159 C.3       1 <1>        -0.050040 
      8 C          -2.555124    1.526797    0.629514 C.3       1 <1>        -0.062333 
      9 C          -2.774428   -0.991513    0.636227 C.3       1 <1>        -0.062333 
     10 C           2.081207   -0.079875    0.501166 C.3       1 <1>        -0.041530 
     11 C           3.181922   -0.139835   -0.598742 C.3       1 <1>        -0.062334 
     12 H          -1.388216    0.140361   -1.506485 H         1 <1>         0.032812 
     13 H          -0.605732   -2.090793   -0.633425 H         1 <1>         0.059599 
     14 H          -0.263512    2.258241   -0.712610 H         1 <1>         0.026890 
     15 H           0.787050    1.223583   -1.652627 H         1 <1>         0.026890 
     16 H          -1.213343    0.143370    1.578316 H         1 <1>         0.029894 
     17 H           1.696821   -2.230307    0.358224 H         1 <1>         0.029270 
     18 H           0.583164   -1.366816    1.424070 H         1 <1>         0.029270 
     19 H           1.197580   -2.077143   -2.115093 H         1 <1>         0.209788 
     20 H           1.984918    2.100166    0.351986 H         1 <1>         0.026796 
     21 H           0.761091    1.400858    1.421853 H         1 <1>         0.026796 
     22 H          -3.336311    1.518426    1.405375 H         1 <1>         0.023243 
     23 H          -1.909366    2.387568    0.854718 H         1 <1>         0.023243 
     24 H          -3.041451    1.688229   -0.344719 H         1 <1>         0.023243 
     25 H          -3.546808   -0.838557    1.405849 H         1 <1>         0.023243 
     26 H          -2.291026   -1.949254    0.876044 H         1 <1>         0.023243 
     27 H          -3.276350   -1.077256   -0.339652 H         1 <1>         0.023243 
     28 H           2.627348   -0.120232    1.461970 H         1 <1>         0.029893 
     29 H           3.902972    0.679836   -0.453200 H         1 <1>         0.023243 
     30 H           3.734270   -1.090032   -0.532550 H         1 <1>         0.023243 
     31 H           2.778227   -0.050454   -1.614708 H         1 <1>         0.023243 
@<TRIPOS>BOND
     1    1    2 1    
     2    1    3 1    
     3    1    4 1    
     4    1   12 1    
     5    2    5 1    
     6    2    6 1    
     7    2   13 1    
     8    3    7 1    
     9    3   14 1    
    10    3   15 1    
    11    4    8 1    
    12    4    9 1    
    13    4   16 1    
    14    5   10 1    
    15    5   17 1    
    16    5   18 1    
    17    6   19 1    
    18    7   10 1    
    19    7   20 1    
    20    7   21 1    
    21    8   22 1    
    22    8   23 1    
    23    8   24 1    
    24    9   25 1    
    25    9   26 1    
    26    9   27 1    
    27   10   11 1    
    28   10   28 1    
    29   11   29 1    
    30   11   30 1    
    31   11   31 1    
@<TRIPOS>SUBSTRUCTURE
     1 ****        1 TEMP              0 ****  ****    0 ROOT 
@<TRIPOS>NORMAL
@<TRIPOS>FF_PBC
FORCE_FIELD_SETUP_FEATURE Force Field Setup information
v1.0  0 0.000000 0.000000 0.000000 0.000000 0.000000 0.000000 NONE 0 0 0 0 1 0 0 0 0 0 0 0 0
