@<TRIPOS>MOLECULE
MOL006930
   71    74     1     1     0
SMALL
GASTEIGER


@<TRIPOS>ATOM
      1 C          -1.917681    2.810270   -0.257026 C.ar      1 <1>         0.105678 
      2 C          -1.383724    1.432278   -0.329760 C.ar      1 <1>        -0.025385 
      3 C          -0.155723    1.134363   -0.953239 C.ar      1 <1>        -0.037016 
      4 C           0.570576    2.224511   -1.649369 C.ar      1 <1>        -0.055390 
      5 C           0.075066    3.542028   -1.628419 C.ar      1 <1>        -0.029122 
      6 C          -1.183498    3.878461   -0.913058 C.ar      1 <1>         0.102452 
      7 O          -1.639604    5.200088   -0.877649 O.3       1 <1>        -0.357269 
      8 C           0.393643   -0.302270   -0.906679 C.3       1 <1>         0.014887 
      9 O          -3.108975    3.013055    0.458928 O.3       1 <1>        -0.345341 
     10 O          -0.525559   -0.373210    1.813833 O.3       1 <1>        -0.348374 
     11 O           3.484954    1.005291    2.065541 O.3       1 <1>        -0.394714 
     12 O          -0.200300   -1.147288   -5.808239 O.3       1 <1>        -0.357262 
     13 O           2.540925   -1.560199   -6.126487 O.3       1 <1>        -0.345341 
     14 C          -3.719773    4.305123    0.592633 C.3       1 <1>         0.043136 
     15 C           1.395602   -0.519726    0.270290 C.3       1 <1>        -0.001443 
     16 C           2.811324    0.032193   -0.083237 C.3       1 <1>        -0.008068 
     17 C           3.397616   -0.771822   -1.276923 C.3       1 <1>        -0.022052 
     18 C           2.433791   -0.865429   -2.463062 C.ar      1 <1>        -0.040653 
     19 C           0.978494   -0.640927   -2.281336 C.ar      1 <1>        -0.033851 
     20 C           0.831450    0.072677    1.594750 C.3       1 <1>         0.054761 
     21 C           2.916480   -1.161623   -3.705362 C.ar      1 <1>        -0.025690 
     22 C           2.009086   -1.257614   -4.871321 C.ar      1 <1>         0.105677 
     23 C           0.660521   -1.052359   -4.709421 C.ar      1 <1>         0.102730 
     24 C           0.137152   -0.729675   -3.357649 C.ar      1 <1>        -0.025368 
     25 C           3.813556   -0.017463    1.106860 C.3       1 <1>         0.047671 
     26 C           2.637313   -0.432999   -7.011753 C.3       1 <1>         0.043136 
     27 C          -1.052203    0.023219    3.097196 C.3       1 <1>         0.187910 
     28 O          -0.412580   -0.732476    4.145923 O.3       1 <1>        -0.340534 
     29 C          -0.682784   -2.156042    4.114587 C.3       1 <1>         0.113005 
     30 C          -2.211208   -2.436651    4.163145 C.3       1 <1>         0.111896 
     31 C          -2.956932   -1.636931    3.065187 C.3       1 <1>         0.114061 
     32 C          -2.594782   -0.138636    3.185557 C.3       1 <1>         0.134111 
     33 C           0.057096   -2.928078    2.984981 C.3       1 <1>         0.073015 
     34 O           0.094136   -4.336584    3.289026 O.3       1 <1>        -0.392366 
     35 O          -4.373674   -1.825009    3.252249 O.3       1 <1>        -0.386401 
     36 O          -2.487755   -3.843624    4.036576 O.3       1 <1>        -0.386488 
     37 O          -3.320275    0.583106    2.168439 O.3       1 <1>        -0.384104 
     38 H          -1.963838    0.639233    0.120001 H         1 <1>         0.064703 
     39 H           1.486897    2.013129   -2.190194 H         1 <1>         0.062128 
     40 H           0.626094    4.319348   -2.147449 H         1 <1>         0.064412 
     41 H          -1.076765    5.815561   -1.332938 H         1 <1>         0.217422 
     42 H          -0.449587   -0.996604   -0.751036 H         1 <1>         0.040079 
     43 H           4.071332    1.021927    2.816854 H         1 <1>         0.209407 
     44 H          -1.119883   -1.071260   -5.582122 H         1 <1>         0.217422 
     45 H          -4.634299    4.180374    1.190479 H         1 <1>         0.052871 
     46 H          -4.003543    4.712091   -0.389788 H         1 <1>         0.052871 
     47 H          -3.054995    5.004211    1.122320 H         1 <1>         0.052871 
     48 H           1.499459   -1.607852    0.423048 H         1 <1>         0.033546 
     49 H           2.726069    1.090535   -0.371999 H         1 <1>         0.032965 
     50 H           4.334425   -0.297260   -1.612028 H         1 <1>         0.031676 
     51 H           3.624608   -1.802243   -0.961172 H         1 <1>         0.031676 
     52 H           1.454436   -0.244017    2.444405 H         1 <1>         0.056382 
     53 H           0.861998    1.172728    1.536160 H         1 <1>         0.056382 
     54 H           3.976181   -1.333250   -3.858971 H         1 <1>         0.064692 
     55 H          -0.925841   -0.560049   -3.222557 H         1 <1>         0.064703 
     56 H           4.835944    0.181233    0.740689 H         1 <1>         0.055992 
     57 H           3.798194   -1.020222    1.566791 H         1 <1>         0.055992 
     58 H           3.078065   -0.777184   -7.958715 H         1 <1>         0.052871 
     59 H           3.288564    0.342552   -6.579562 H         1 <1>         0.052871 
     60 H           1.647084   -0.000882   -7.222345 H         1 <1>         0.052871 
     61 H          -0.848006    1.093344    3.271179 H         1 <1>         0.093740 
     62 H          -0.246650   -2.548908    5.048250 H         1 <1>         0.064668 
     63 H          -2.585734   -2.085912    5.141633 H         1 <1>         0.064673 
     64 H          -2.668868   -2.005413    2.066916 H         1 <1>         0.064758 
     65 H          -2.932048    0.213344    4.176139 H         1 <1>         0.067095 
     66 H          -0.418731   -2.774621    2.005326 H         1 <1>         0.058370 
     67 H           1.095493   -2.563574    2.938731 H         1 <1>         0.058370 
     68 H           0.541898   -4.858594    2.629682 H         1 <1>         0.209508 
     69 H          -4.881308   -1.325544    2.618078 H         1 <1>         0.210005 
     70 H          -3.422671   -4.027552    4.054888 H         1 <1>         0.210004 
     71 H          -3.165557    1.524907    2.167655 H         1 <1>         0.210110 
@<TRIPOS>BOND
     1    2    1 1    
     2    1    6 2    
     3    1    9 1    
     4    3    2 2    
     5    2   38 1    
     6    3    4 1    
     7    8    3 1    
     8    4    5 2    
     9    4   39 1    
    10    5    6 1    
    11    5   40 1    
    12    6    7 1    
    13    7   41 1    
    14    8   15 1    
    15   19    8 1    
    16    8   42 1    
    17    9   14 1    
    18   20   10 1    
    19   10   27 1    
    20   25   11 1    
    21   11   43 1    
    22   23   12 1    
    23   12   44 1    
    24   22   13 1    
    25   13   26 1    
    26   14   45 1    
    27   14   46 1    
    28   14   47 1    
    29   16   15 1    
    30   15   20 1    
    31   15   48 1    
    32   17   16 1    
    33   16   25 1    
    34   16   49 1    
    35   18   17 1    
    36   17   50 1    
    37   17   51 1    
    38   18   19 1    
    39   21   18 2    
    40   19   24 2    
    41   20   52 1    
    42   20   53 1    
    43   22   21 1    
    44   21   54 1    
    45   22   23 2    
    46   23   24 1    
    47   24   55 1    
    48   25   56 1    
    49   25   57 1    
    50   26   58 1    
    51   26   59 1    
    52   26   60 1    
    53   27   28 1    
    54   27   32 1    
    55   27   61 1    
    56   28   29 1    
    57   29   30 1    
    58   29   33 1    
    59   29   62 1    
    60   30   31 1    
    61   30   36 1    
    62   30   63 1    
    63   31   32 1    
    64   31   35 1    
    65   31   64 1    
    66   32   37 1    
    67   32   65 1    
    68   33   34 1    
    69   33   66 1    
    70   33   67 1    
    71   34   68 1    
    72   35   69 1    
    73   36   70 1    
    74   37   71 1    
@<TRIPOS>SUBSTRUCTURE
     1 ****        1 TEMP              0 ****  ****    0 ROOT 
@<TRIPOS>NORMAL
@<TRIPOS>FF_PBC
FORCE_FIELD_SETUP_FEATURE Force Field Setup information
v1.0  0 0.000000 0.000000 0.000000 0.000000 0.000000 0.000000 NONE 0 0 0 0 1 0 0 0 0 0 0 0 0
