@<TRIPOS>MOLECULE
MOL004684
   57    56     1     1     0
SMALL
GASTEIGER


@<TRIPOS>ATOM
      1 O         -11.650478   -0.876843   -0.000162 O.3       1 <1>        -0.315204 
      2 O         -10.508163    0.992648   -0.000140 O.2       1 <1>        -0.259899 
      3 C           2.207407    0.748622   -0.000131 C.3       1 <1>        -0.053057 
      4 C           1.006016   -0.236098    0.000089 C.3       1 <1>        -0.053057 
      5 C           3.562897   -0.010470    0.000114 C.3       1 <1>        -0.053057 
      6 C          -0.349710    0.522583   -0.000151 C.3       1 <1>        -0.053057 
      7 C           4.763407    0.975454   -0.000117 C.3       1 <1>        -0.053057 
      8 C          -1.549378   -0.464240    0.000067 C.3       1 <1>        -0.053057 
      9 C           6.120130    0.218824    0.000123 C.3       1 <1>        -0.053057 
     10 C          -2.907140    0.290652   -0.000134 C.3       1 <1>        -0.053048 
     11 C           7.318906    1.206880   -0.000114 C.3       1 <1>        -0.053065 
     12 C          -4.102974   -0.700830    0.000101 C.3       1 <1>        -0.052779 
     13 C           8.675886    0.450954    0.000120 C.3       1 <1>        -0.053306 
     14 C          -5.463676    0.048540   -0.000056 C.3       1 <1>        -0.049604 
     15 C           9.874399    1.438736   -0.000119 C.3       1 <1>        -0.055911 
     16 C          -6.656133   -0.946014    0.000249 C.3       1 <1>        -0.034287 
     17 C          11.228293    0.682159    0.000113 C.3       1 <1>        -0.065276 
     18 C          -7.991420   -0.238043    0.000154 C.2       1 <1>        -0.078358 
     19 C          -9.150993   -0.911423   -0.000040 C.2       1 <1>         0.006011 
     20 C         -10.469776   -0.226720   -0.000118 C.2       1 <1>         0.286028 
     21 C         -11.625461   -2.316515   -0.000140 C.3       1 <1>         0.046178 
     22 H          -8.003567    0.852939    0.000260 H         1 <1>         0.057383 
     23 H          -9.061124   -1.995194   -0.000128 H         1 <1>         0.067401 
     24 H           2.150514    1.391996   -0.893603 H         1 <1>         0.026528 
     25 H           2.150456    1.392469    0.893005 H         1 <1>         0.026528 
     26 H           1.063014   -0.879457    0.893551 H         1 <1>         0.026528 
     27 H           1.063070   -0.879925   -0.893027 H         1 <1>         0.026528 
     28 H           3.620081   -0.653858    0.893589 H         1 <1>         0.026528 
     29 H           3.620133   -0.654339   -0.893002 H         1 <1>         0.026528 
     30 H          -0.407337    1.165878   -0.893650 H         1 <1>         0.026528 
     31 H          -0.407391    1.166341    0.893007 H         1 <1>         0.026528 
     32 H           4.705804    1.618709   -0.893599 H         1 <1>         0.026528 
     33 H           4.705757    1.619189    0.893021 H         1 <1>         0.026528 
     34 H          -1.490894   -1.107525    0.893498 H         1 <1>         0.026528 
     35 H          -1.490869   -1.107957   -0.893055 H         1 <1>         0.026528 
     36 H           6.178573   -0.424401    0.893602 H         1 <1>         0.026528 
     37 H           6.178615   -0.424882   -0.893012 H         1 <1>         0.026528 
     38 H          -2.966783    0.933781   -0.893616 H         1 <1>         0.026529 
     39 H          -2.966794    0.934214    0.893034 H         1 <1>         0.026529 
     40 H           7.260818    1.850167   -0.893604 H         1 <1>         0.026528 
     41 H           7.260777    1.850645    0.893019 H         1 <1>         0.026528 
     42 H          -4.041943   -1.343868    0.893557 H         1 <1>         0.026538 
     43 H          -4.041961   -1.344283   -0.893055 H         1 <1>         0.026538 
     44 H           8.735122   -0.192140    0.893645 H         1 <1>         0.026520 
     45 H           8.735164   -0.192622   -0.893062 H         1 <1>         0.026520 
     46 H          -5.528192    0.690574   -0.894252 H         1 <1>         0.026822 
     47 H          -5.528126    0.691034    0.893818 H         1 <1>         0.026822 
     48 H           9.822084    2.082917   -0.893772 H         1 <1>         0.026265 
     49 H           9.822043    2.083396    0.893184 H         1 <1>         0.026265 
     50 H          -6.596360   -1.587104    0.894647 H         1 <1>         0.030743 
     51 H          -6.596421   -1.587581   -0.893810 H         1 <1>         0.030743 
     52 H          12.063858    1.400024   -0.000060 H         1 <1>         0.022978 
     53 H          11.313153    0.046504    0.895307 H         1 <1>         0.022978 
     54 H          11.313193    0.046025   -0.894737 H         1 <1>         0.022978 
     55 H         -12.673543   -2.650761   -0.000149 H         1 <1>         0.052972 
     56 H         -11.146419   -2.719938   -0.906200 H         1 <1>         0.052972 
     57 H         -11.146442   -2.719919    0.905944 H         1 <1>         0.052972 
@<TRIPOS>BOND
     1   20    1 1    
     2    1   21 1    
     3   20    2 2    
     4    4    3 1    
     5    3    5 1    
     6    3   24 1    
     7    3   25 1    
     8    6    4 1    
     9    4   26 1    
    10    4   27 1    
    11    5    7 1    
    12    5   28 1    
    13    5   29 1    
    14    8    6 1    
    15    6   30 1    
    16    6   31 1    
    17    7    9 1    
    18    7   32 1    
    19    7   33 1    
    20   10    8 1    
    21    8   34 1    
    22    8   35 1    
    23    9   11 1    
    24    9   36 1    
    25    9   37 1    
    26   12   10 1    
    27   10   38 1    
    28   10   39 1    
    29   11   13 1    
    30   11   40 1    
    31   11   41 1    
    32   14   12 1    
    33   12   42 1    
    34   12   43 1    
    35   13   15 1    
    36   13   44 1    
    37   13   45 1    
    38   16   14 1    
    39   14   46 1    
    40   14   47 1    
    41   15   17 1    
    42   15   48 1    
    43   15   49 1    
    44   18   16 1    
    45   16   50 1    
    46   16   51 1    
    47   17   52 1    
    48   17   53 1    
    49   17   54 1    
    50   19   18 2    
    51   18   22 1    
    52   19   20 1    
    53   19   23 1    
    54   21   55 1    
    55   21   56 1    
    56   21   57 1    
@<TRIPOS>SUBSTRUCTURE
     1 ****        3 TEMP              0 ****  ****    0 ROOT 
@<TRIPOS>NORMAL
@<TRIPOS>FF_PBC
FORCE_FIELD_SETUP_FEATURE Force Field Setup information
v1.0  0 0.000000 0.000000 0.000000 0.000000 0.000000 0.000000 NONE 0 0 0 0 1 0 0 0 0 0 0 0 0
