@<TRIPOS>MOLECULE
MOL002282
  204   221     1     1     0
SMALL
GASTEIGER


@<TRIPOS>ATOM
      1 C          -1.929336    6.348126   -3.672611 C.ar      1 <1>        -0.001429 
      2 C          -2.751849    5.226467   -3.525554 C.ar      1 <1>         0.077481 
      3 C          -2.349176    3.939227   -4.143221 C.ar      1 <1>        -0.001717 
      4 C          -1.159159    3.833289   -4.854128 C.ar      1 <1>         0.081305 
      5 C          -0.284504    5.022287   -5.023747 C.ar      1 <1>         0.022531 
      6 C          -0.677487    6.264087   -4.458669 C.ar      1 <1>         0.085799 
      7 C           1.016814    4.908081   -5.815581 C.3       1 <1>         0.047701 
      8 O          -0.810874    2.603500   -5.408650 O.3       1 <1>        -0.359375 
      9 C           1.780824    3.652380   -5.365634 C.ar      1 <1>         0.022819 
     10 C           2.023066    2.597740   -6.276997 C.ar      1 <1>         0.081323 
     11 C           2.789130    1.406944   -5.836400 C.ar      1 <1>        -0.001429 
     12 C           3.280269    1.317296   -4.535917 C.ar      1 <1>         0.081322 
     13 C           3.013747    2.404063   -3.558505 C.ar      1 <1>         0.022743 
     14 C           2.268057    3.540514   -3.967648 C.ar      1 <1>         0.089638 
     15 O          -3.939029    5.333229   -2.800730 O.3       1 <1>        -0.359667 
     16 O           0.089112    7.417121   -4.646481 O.3       1 <1>        -0.333821 
     17 C           0.981814    7.433783   -5.776416 C.3       1 <1>         0.116901 
     18 C           0.290040    7.558155   -7.147664 C.ar      1 <1>        -0.013308 
     19 C           1.076686    7.820011   -8.303446 C.ar      1 <1>        -0.023672 
     20 C           0.456123    7.928471   -9.642978 C.ar      1 <1>         0.102526 
     21 C          -0.942593    7.783058   -9.785214 C.ar      1 <1>         0.102203 
     22 C          -1.775198    7.529383   -8.583285 C.ar      1 <1>        -0.029067 
     23 C          -1.181244    7.426853   -7.314975 C.ar      1 <1>        -0.053426 
     24 O          -1.515789    7.884158  -11.056503 O.3       1 <1>        -0.357275 
     25 O           1.265068    8.173902  -10.754169 O.3       1 <1>        -0.357268 
     26 C           1.892346    6.182883   -5.685860 C.3       1 <1>         0.096985 
     27 O           1.537953    2.688187   -7.583833 O.3       1 <1>        -0.359374 
     28 O           4.023257    0.197452   -4.173188 O.3       1 <1>        -0.359374 
     29 C           3.548142    2.307053   -2.125406 C.3       1 <1>         0.045518 
     30 C           3.409231    0.864365   -1.600269 C.ar      1 <1>        -0.003934 
     31 C           4.605760    0.164921   -1.239027 C.ar      1 <1>         0.079124 
     32 C           4.547230   -1.270383   -0.882461 C.ar      1 <1>        -0.001577 
     33 C           3.347960   -1.953207   -0.897511 C.ar      1 <1>         0.079122 
     34 C           2.076706   -1.235358   -1.178158 C.ar      1 <1>        -0.004014 
     35 C           2.096239    0.160711   -1.491291 C.ar      1 <1>        -0.034144 
     36 O           5.835876    0.825177   -1.262893 O.3       1 <1>        -0.359449 
     37 O           3.353705   -3.322350   -0.632867 O.3       1 <1>        -0.359449 
     38 C           0.770290   -2.035916   -1.095411 C.3       1 <1>         0.043318 
     39 C          -0.536298   -1.196598   -1.118346 C.3       1 <1>         0.073311 
     40 C           0.759127    0.892852   -1.670434 C.3       1 <1>        -0.017741 
     41 C          -0.416042   -0.014702   -2.113084 C.3       1 <1>         0.015101 
     42 C          -1.787696    0.697705   -2.152383 C.ar      1 <1>        -0.038908 
     43 C          -2.830399    0.115290   -2.918796 C.ar      1 <1>        -0.025867 
     44 C          -4.192114    0.698229   -2.928666 C.ar      1 <1>         0.102453 
     45 C          -4.468477    1.856138   -2.161699 C.ar      1 <1>         0.102201 
     46 C          -3.376375    2.494057   -1.387551 C.ar      1 <1>        -0.029139 
     47 C          -2.085804    1.947326   -1.399136 C.ar      1 <1>        -0.055623 
     48 O          -5.192465    0.090278   -3.689727 O.3       1 <1>        -0.357268 
     49 O          -5.760501    2.387459   -2.155307 O.3       1 <1>        -0.357275 
     50 C           2.985841    3.393144   -1.174073 C.3       1 <1>         0.096911 
     51 O           1.998513    4.566912   -3.062783 O.3       1 <1>        -0.333529 
     52 C           2.895208    4.733425   -1.949500 C.3       1 <1>         0.116912 
     53 C           4.290601    5.296800   -2.292760 C.ar      1 <1>        -0.013308 
     54 C           4.997988    6.027937   -1.297536 C.ar      1 <1>        -0.023672 
     55 C           6.338896    6.594761   -1.567017 C.ar      1 <1>         0.102526 
     56 C           6.937815    6.416239   -2.834212 C.ar      1 <1>         0.102203 
     57 C           6.211224    5.658414   -3.881885 C.ar      1 <1>        -0.029067 
     58 C           4.940466    5.121179   -3.619318 C.ar      1 <1>        -0.053426 
     59 O           8.204064    6.957404   -3.076595 O.3       1 <1>        -0.357275 
     60 O           6.997966    7.303248   -0.560273 O.3       1 <1>        -0.357268 
     61 H           1.604211    8.335794   -5.661445 H         1 <1>         0.067783 
     62 H           2.375804    6.239955   -4.698355 H         1 <1>         0.063210 
     63 O           2.912994    6.208209   -6.701181 O.3       1 <1>        -0.387932 
     64 H          -1.356530   -1.871817   -1.424567 H         1 <1>         0.060859 
     65 H          -0.181575   -0.400982   -3.119390 H         1 <1>         0.037733 
     66 O          -0.853325   -0.711663    0.200375 O.3       1 <1>        -0.390249 
     67 H           1.968462    3.134718   -0.851869 H         1 <1>         0.063209 
     68 H           2.398106    5.480150   -1.309662 H         1 <1>         0.067783 
     69 O           3.832966    3.474133   -0.011383 O.3       1 <1>        -0.387933 
     70 C           0.798556   -2.870123    0.190049 C.ar      1 <1>         0.022664 
     71 C           0.551869   -4.259233    0.169147 C.ar      1 <1>         0.081321 
     72 C           0.569889   -5.022753    1.438999 C.ar      1 <1>        -0.001429 
     73 C           0.817115   -4.388972    2.647676 C.ar      1 <1>         0.081323 
     74 C           1.071661   -2.925034    2.685730 C.ar      1 <1>         0.022819 
     75 C           1.100150   -2.191245    1.473522 C.ar      1 <1>         0.089637 
     76 C           1.298546   -2.222004    4.024930 C.3       1 <1>         0.047710 
     77 O           0.829514   -5.148316    3.816504 O.3       1 <1>        -0.359374 
     78 C           0.218397   -2.729883    4.991848 C.ar      1 <1>         0.022819 
     79 C           0.566231   -3.325003    6.222742 C.ar      1 <1>         0.081323 
     80 C          -0.503996   -3.807579    7.129323 C.ar      1 <1>        -0.001429 
     81 C          -1.849322   -3.671723    6.782890 C.ar      1 <1>         0.081322 
     82 C          -2.231210   -3.057203    5.485205 C.ar      1 <1>         0.022743 
     83 C          -1.210100   -2.599349    4.611819 C.ar      1 <1>         0.089638 
     84 O           0.298803   -4.902538   -1.042058 O.3       1 <1>        -0.359374 
     85 O           1.407805   -0.828373    1.465459 O.3       1 <1>        -0.333529 
     86 C           1.998062   -0.231156    2.626523 C.3       1 <1>         0.116913 
     87 C           3.516158   -0.442249    2.753028 C.ar      1 <1>        -0.013308 
     88 C           4.308228    0.583276    3.336349 C.ar      1 <1>        -0.023672 
     89 C           5.777306    0.441195    3.444474 C.ar      1 <1>         0.102526 
     90 C           6.407543   -0.733594    2.970845 C.ar      1 <1>         0.102203 
     91 C           5.583571   -1.816862    2.378510 C.ar      1 <1>        -0.029067 
     92 C           4.191354   -1.676311    2.277416 C.ar      1 <1>        -0.053426 
     93 O           7.797214   -0.851196    3.070156 O.3       1 <1>        -0.357275 
     94 O           6.525786    1.475032    4.011076 O.3       1 <1>        -0.357268 
     95 C           1.228852   -0.676819    3.891398 C.3       1 <1>         0.096986 
     96 O           1.912257   -3.455618    6.571112 O.3       1 <1>        -0.359374 
     97 O          -2.822311   -4.114390    7.673965 O.3       1 <1>        -0.359374 
     98 C          -3.706856   -2.897274    5.101047 C.3       1 <1>         0.045518 
     99 C          -4.543602   -4.132829    5.510978 C.ar      1 <1>        -0.003953 
    100 C          -5.541455   -3.955355    6.531760 C.ar      1 <1>         0.079123 
    101 C          -6.312636   -5.116022    7.035895 C.ar      1 <1>        -0.001596 
    102 C          -6.077719   -6.388807    6.556483 C.ar      1 <1>         0.078536 
    103 C          -5.085691   -6.611347    5.473942 C.ar      1 <1>        -0.011586 
    104 C          -4.348358   -5.496095    4.927621 C.ar      1 <1>        -0.034733 
    105 O          -5.762852   -2.686151    7.073301 O.3       1 <1>        -0.359449 
    106 O          -6.794069   -7.454887    7.099058 O.3       1 <1>        -0.359469 
    107 C          -4.895205   -8.047476    4.967531 C.3       1 <1>         0.001726 
    108 C          -4.236270   -8.123242    3.571762 C.3       1 <1>         0.066357 
    109 C          -3.401166   -5.744462    3.743237 C.3       1 <1>        -0.017780 
    110 C          -2.975767   -7.222579    3.555036 C.3       1 <1>         0.014524 
    111 C          -2.173316   -7.500951    2.263886 C.ar      1 <1>        -0.038928 
    112 C          -1.137065   -8.475647    2.296006 C.ar      1 <1>        -0.025867 
    113 C          -0.353043   -8.804030    1.083033 C.ar      1 <1>         0.102453 
    114 C          -0.636060   -8.146996   -0.136864 C.ar      1 <1>         0.102201 
    115 C          -1.710038   -7.125329   -0.181718 C.ar      1 <1>        -0.029139 
    116 C          -2.440449   -6.810164    0.972482 C.ar      1 <1>        -0.055623 
    117 O           0.658908   -9.763106    1.158924 O.3       1 <1>        -0.357268 
    118 O           0.106054   -8.463639   -1.277743 O.3       1 <1>        -0.357275 
    119 C          -3.925529   -2.421841    3.640473 C.3       1 <1>         0.096911 
    120 O          -1.536358   -2.012835    3.390226 O.3       1 <1>        -0.333529 
    121 C          -2.828384   -1.399403    3.251761 C.3       1 <1>         0.116912 
    122 C          -3.014835   -0.046711    3.964933 C.ar      1 <1>        -0.013308 
    123 C          -3.893419    0.914865    3.389584 C.ar      1 <1>        -0.023672 
    124 C          -4.111129    2.232363    4.027180 C.ar      1 <1>         0.102526 
    125 C          -3.437983    2.552154    5.228442 C.ar      1 <1>         0.102203 
    126 C          -2.518294    1.558488    5.836298 C.ar      1 <1>        -0.029067 
    127 C          -2.314871    0.308346    5.227313 C.ar      1 <1>        -0.053426 
    128 O          -3.651679    3.800459    5.820871 O.3       1 <1>        -0.357275 
    129 O          -4.981907    3.146646    3.430117 O.3       1 <1>        -0.357268 
    130 H           1.838194    0.849443    2.479326 H         1 <1>         0.067783 
    131 H           0.187445   -0.345249    3.746374 H         1 <1>         0.063210 
    132 O           1.785838   -0.025987    5.048744 O.3       1 <1>        -0.387932 
    133 H          -3.954119   -9.175554    3.381120 H         1 <1>         0.060246 
    134 H          -2.342490   -7.478068    4.421060 H         1 <1>         0.037714 
    135 O          -5.213775   -7.708691    2.599601 O.3       1 <1>        -0.390855 
    136 H          -3.810968   -3.254493    2.939567 H         1 <1>         0.063209 
    137 H          -2.908058   -1.199119    2.172315 H         1 <1>         0.067783 
    138 O          -5.257134   -1.884976    3.516466 O.3       1 <1>        -0.387933 
    139 H          -2.211113    7.288845   -3.214274 H         1 <1>         0.066920 
    140 H          -2.978041    3.064193   -4.052216 H         1 <1>         0.066912 
    141 H           0.712214    4.838659   -6.870720 H         1 <1>         0.042671 
    142 H          -0.675767    2.672038   -6.348186 H         1 <1>         0.217328 
    143 H           2.982197    0.593639   -6.526460 H         1 <1>         0.066921 
    144 H          -4.578126    4.670243   -3.039351 H         1 <1>         0.217316 
    145 H           2.149921    7.947384   -8.225095 H         1 <1>         0.064760 
    146 H          -2.850913    7.426062   -8.680326 H         1 <1>         0.064413 
    147 H          -1.823636    7.256987   -6.460730 H         1 <1>         0.062193 
    148 H          -2.462790    7.806175  -11.053356 H         1 <1>         0.217422 
    149 H           0.753764    8.233532  -11.556201 H         1 <1>         0.217422 
    150 H           1.773240    1.950679   -8.135832 H         1 <1>         0.217328 
    151 H           4.905228    0.444366   -3.914611 H         1 <1>         0.217328 
    152 H           4.608512    2.566383   -2.257762 H         1 <1>         0.042597 
    153 H           5.455774   -1.804691   -0.630432 H         1 <1>         0.066919 
    154 H           6.474711    0.443097   -0.670527 H         1 <1>         0.217326 
    155 H           2.956369   -3.812818   -1.344227 H         1 <1>         0.217326 
    156 H           0.785029   -2.674588   -1.993142 H         1 <1>         0.042519 
    157 H           0.817754    1.729418   -2.379495 H         1 <1>         0.032002 
    158 H           0.566512    1.267363   -0.656148 H         1 <1>         0.032002 
    159 H          -2.648114   -0.782389   -3.499029 H         1 <1>         0.064686 
    160 H          -3.572448    3.395902   -0.815881 H         1 <1>         0.064412 
    161 H          -1.320509    2.466851   -0.837432 H         1 <1>         0.062120 
    162 H          -6.026617    0.542311   -3.601527 H         1 <1>         0.217422 
    163 H          -5.928603    2.945398   -1.403811 H         1 <1>         0.217422 
    164 H           4.564580    6.185721   -0.317113 H         1 <1>         0.064760 
    165 H           6.661930    5.515710   -4.858777 H         1 <1>         0.064413 
    166 H           4.454318    4.576559   -4.414990 H         1 <1>         0.062193 
    167 H           8.524287    6.795961   -3.956640 H         1 <1>         0.217422 
    168 H           7.856220    7.603689   -0.845761 H         1 <1>         0.217422 
    169 H           3.493805    5.454753   -6.673467 H         1 <1>         0.209941 
    170 H          -1.666947   -0.223922    0.256359 H         1 <1>         0.209840 
    171 H           3.520355    4.086043    0.647449 H         1 <1>         0.209941 
    172 H           0.392288   -6.089408    1.435934 H         1 <1>         0.066921 
    173 H           2.312285   -2.493286    4.356208 H         1 <1>         0.042671 
    174 H           1.638945   -5.027079    4.301898 H         1 <1>         0.217328 
    175 H          -0.251681   -4.268672    8.077342 H         1 <1>         0.066921 
    176 H           0.665003   -5.780194   -1.059727 H         1 <1>         0.217328 
    177 H           3.846771    1.491466    3.707907 H         1 <1>         0.064760 
    178 H           6.056129   -2.725739    2.021229 H         1 <1>         0.064413 
    179 H           3.618859   -2.486702    1.846518 H         1 <1>         0.062193 
    180 H           8.132433   -1.681754    2.752759 H         1 <1>         0.217422 
    181 H           7.457371    1.275321    4.012358 H         1 <1>         0.217422 
    182 H           2.053262   -3.835326    7.431437 H         1 <1>         0.217328 
    183 H          -3.367323   -3.390552    7.965544 H         1 <1>         0.217328 
    184 H          -3.994965   -2.023603    5.702316 H         1 <1>         0.042597 
    185 H          -7.064081   -4.978284    7.804756 H         1 <1>         0.066919 
    186 H          -6.587268   -2.608834    7.540448 H         1 <1>         0.217326 
    187 H          -6.217759   -8.150370    7.395417 H         1 <1>         0.217326 
    188 H          -5.869110   -8.560024    4.913157 H         1 <1>         0.033923 
    189 H          -4.264394   -8.568529    5.705252 H         1 <1>         0.033923 
    190 H          -2.501875   -5.112207    3.785485 H         1 <1>         0.032002 
    191 H          -4.021370   -5.468819    2.884706 H         1 <1>         0.032002 
    192 H          -0.905622   -9.003666    3.214359 H         1 <1>         0.064686 
    193 H          -1.931226   -6.612085   -1.112567 H         1 <1>         0.064412 
    194 H          -3.206596   -6.050487    0.885369 H         1 <1>         0.062120 
    195 H           1.081865   -9.897016    0.315356 H         1 <1>         0.217422 
    196 H          -0.307902   -8.179470   -2.084845 H         1 <1>         0.217422 
    197 H          -4.422008    0.700067    2.468150 H         1 <1>         0.064760 
    198 H          -1.997289    1.795401    6.758123 H         1 <1>         0.064413 
    199 H          -1.636061   -0.385775    5.703598 H         1 <1>         0.062193 
    200 H          -3.159120    3.929480    6.623226 H         1 <1>         0.217422 
    201 H          -5.058432    3.945927    3.943700 H         1 <1>         0.217422 
    202 H           1.336534   -0.256455    5.855771 H         1 <1>         0.209941 
    203 H          -4.914255   -7.797350    1.701063 H         1 <1>         0.209815 
    204 H          -5.481880   -1.620907    2.629852 H         1 <1>         0.209941 
@<TRIPOS>BOND
     1    1    2 2    
     2    1    6 1    
     3    1  139 1    
     4    2    3 1    
     5    2   15 1    
     6    3    4 2    
     7    3  140 1    
     8    4    5 1    
     9    4    8 1    
    10    5    6 2    
    11    5    7 1    
    12    6   16 1    
    13    7    9 1    
    14    7   26 1    
    15    7  141 1    
    16    8  142 1    
    17    9   10 2    
    18    9   14 1    
    19   10   11 1    
    20   10   27 1    
    21   11   12 2    
    22   11  143 1    
    23   12   13 1    
    24   12   28 1    
    25   13   14 2    
    26   13   29 1    
    27   14   51 1    
    28   15  144 1    
    29   16   17 1    
    30   17   18 1    
    31   17   26 1    
    32   17   61 1    
    33   18   19 2    
    34   18   23 1    
    35   19   20 1    
    36   19  145 1    
    37   20   21 2    
    38   20   25 1    
    39   21   22 1    
    40   21   24 1    
    41   22   23 2    
    42   22  146 1    
    43   23  147 1    
    44   24  148 1    
    45   25  149 1    
    46   26   62 1    
    47   26   63 1    
    48   27  150 1    
    49   28  151 1    
    50   29   30 1    
    51   29   50 1    
    52   29  152 1    
    53   30   31 2    
    54   30   35 1    
    55   31   32 1    
    56   31   36 1    
    57   32   33 2    
    58   32  153 1    
    59   33   34 1    
    60   33   37 1    
    61   34   35 2    
    62   34   38 1    
    63   35   40 1    
    64   36  154 1    
    65   37  155 1    
    66   38   39 1    
    67   38   70 1    
    68   38  156 1    
    69   39   41 1    
    70   39   64 1    
    71   39   66 1    
    72   40   41 1    
    73   40  157 1    
    74   40  158 1    
    75   41   42 1    
    76   41   65 1    
    77   42   43 2    
    78   42   47 1    
    79   43   44 1    
    80   43  159 1    
    81   44   45 2    
    82   44   48 1    
    83   45   46 1    
    84   45   49 1    
    85   46   47 2    
    86   46  160 1    
    87   47  161 1    
    88   48  162 1    
    89   49  163 1    
    90   50   52 1    
    91   50   67 1    
    92   50   69 1    
    93   51   52 1    
    94   52   53 1    
    95   52   68 1    
    96   53   54 2    
    97   53   58 1    
    98   54   55 1    
    99   54  164 1    
   100   55   56 2    
   101   55   60 1    
   102   56   57 1    
   103   56   59 1    
   104   57   58 2    
   105   57  165 1    
   106   58  166 1    
   107   59  167 1    
   108   60  168 1    
   109   63  169 1    
   110   66  170 1    
   111   69  171 1    
   112   70   71 2    
   113   70   75 1    
   114   71   72 1    
   115   71   84 1    
   116   72   73 2    
   117   72  172 1    
   118   73   74 1    
   119   73   77 1    
   120   74   75 2    
   121   74   76 1    
   122   75   85 1    
   123   76   78 1    
   124   76   95 1    
   125   76  173 1    
   126   77  174 1    
   127   78   79 2    
   128   78   83 1    
   129   79   80 1    
   130   79   96 1    
   131   80   81 2    
   132   80  175 1    
   133   81   82 1    
   134   81   97 1    
   135   82   83 2    
   136   82   98 1    
   137   83  120 1    
   138   84  176 1    
   139   85   86 1    
   140   86   87 1    
   141   86   95 1    
   142   86  130 1    
   143   87   88 2    
   144   87   92 1    
   145   88   89 1    
   146   88  177 1    
   147   89   90 2    
   148   89   94 1    
   149   90   91 1    
   150   90   93 1    
   151   91   92 2    
   152   91  178 1    
   153   92  179 1    
   154   93  180 1    
   155   94  181 1    
   156   95  131 1    
   157   95  132 1    
   158   96  182 1    
   159   97  183 1    
   160   98   99 1    
   161   98  119 1    
   162   98  184 1    
   163   99  100 2    
   164   99  104 1    
   165  100  101 1    
   166  100  105 1    
   167  101  102 2    
   168  101  185 1    
   169  102  103 1    
   170  102  106 1    
   171  103  104 2    
   172  103  107 1    
   173  104  109 1    
   174  105  186 1    
   175  106  187 1    
   176  107  108 1    
   177  107  188 1    
   178  107  189 1    
   179  108  110 1    
   180  108  133 1    
   181  108  135 1    
   182  109  110 1    
   183  109  190 1    
   184  109  191 1    
   185  110  111 1    
   186  110  134 1    
   187  111  112 2    
   188  111  116 1    
   189  112  113 1    
   190  112  192 1    
   191  113  114 2    
   192  113  117 1    
   193  114  115 1    
   194  114  118 1    
   195  115  116 2    
   196  115  193 1    
   197  116  194 1    
   198  117  195 1    
   199  118  196 1    
   200  119  121 1    
   201  119  136 1    
   202  119  138 1    
   203  120  121 1    
   204  121  122 1    
   205  121  137 1    
   206  122  123 2    
   207  122  127 1    
   208  123  124 1    
   209  123  197 1    
   210  124  125 2    
   211  124  129 1    
   212  125  126 1    
   213  125  128 1    
   214  126  127 2    
   215  126  198 1    
   216  127  199 1    
   217  128  200 1    
   218  129  201 1    
   219  132  202 1    
   220  135  203 1    
   221  138  204 1    
@<TRIPOS>SUBSTRUCTURE
     1 ****        1 TEMP              0 ****  ****    0 ROOT 
@<TRIPOS>NORMAL
@<TRIPOS>FF_PBC
FORCE_FIELD_SETUP_FEATURE Force Field Setup information
v1.0  0 0.000000 0.000000 0.000000 0.000000 0.000000 0.000000 NONE 0 0 0 0 1 0 0 0 0 0 0 0 0
