@<TRIPOS>MOLECULE
MOL004816
   60    61     1     1     0
SMALL
GASTEIGER


@<TRIPOS>ATOM
      1 O           1.817552    4.431880   -1.031029 O.3       1 <1>        -0.383597 
      2 O           4.246496    3.366630   -1.142116 O.2       1 <1>        -0.289189 
      3 O          -4.424854    3.006816    0.665140 O.3       1 <1>        -0.359551 
      4 O           5.958437    1.924057    0.280350 O.3       1 <1>        -0.359050 
      5 O           4.891576   -2.854313    0.618730 O.3       1 <1>        -0.359468 
      6 C           1.394609    2.807205    0.704339 C.3       1 <1>         0.005735 
      7 C           1.949714    3.029005   -0.726894 C.3       1 <1>         0.121583 
      8 C          -0.136856    2.858268    0.691211 C.ar      1 <1>        -0.044071 
      9 C           3.390902    2.568253   -0.794695 C.2       1 <1>         0.194133 
     10 C          -2.368366    1.729603    0.693932 C.ar      1 <1>        -0.013677 
     11 C           3.781194    1.146534   -0.443678 C.ar      1 <1>         0.050125 
     12 C          -0.885579    1.683398    0.696054 C.ar      1 <1>        -0.052559 
     13 C          -0.832920    4.166520    0.673027 C.ar      1 <1>        -0.056032 
     14 C           3.176699   -1.288199   -0.323277 C.ar      1 <1>        -0.013110 
     15 C          -3.156599    0.413898    0.711299 C.3       1 <1>        -0.006802 
     16 C           2.828963    0.023692   -0.646534 C.ar      1 <1>        -0.042776 
     17 C          -3.028463    2.967304    0.674895 C.ar      1 <1>         0.076052 
     18 C           2.175584   -2.424270   -0.574459 C.3       1 <1>        -0.006789 
     19 C           5.054872    0.878175    0.080720 C.ar      1 <1>         0.085577 
     20 C          -2.230738    4.220281    0.663909 C.ar      1 <1>        -0.031404 
     21 C           4.518347   -1.562401    0.252738 C.ar      1 <1>         0.078512 
     22 C           5.424280   -0.515893    0.432677 C.ar      1 <1>        -0.001202 
     23 C          -3.357840   -0.095745   -0.695077 C.2       1 <1>        -0.080898 
     24 C           1.286942   -2.603161    0.633791 C.2       1 <1>        -0.080898 
     25 C          -3.936048   -1.267639   -1.004827 C.2       1 <1>        -0.079307 
     26 C           0.016789   -3.036416    0.596017 C.2       1 <1>        -0.079307 
     27 C          -4.472119   -2.242669    0.022148 C.3       1 <1>        -0.044040 
     28 C          -4.098221   -1.703446   -2.445668 C.3       1 <1>        -0.044040 
     29 C          -0.809767   -3.161763    1.856884 C.3       1 <1>        -0.044040 
     30 C          -0.687122   -3.433413   -0.682957 C.3       1 <1>        -0.044040 
     31 H           1.714148    1.838920    1.117668 H         1 <1>         0.034254 
     32 H           1.783210    3.590604    1.373240 H         1 <1>         0.034254 
     33 H           1.357595    2.461665   -1.462615 H         1 <1>         0.067962 
     34 H          -0.387704    0.719244    0.701020 H         1 <1>         0.062390 
     35 H          -0.255778    5.085031    0.664701 H         1 <1>         0.062109 
     36 H          -2.584829   -0.318300    1.300898 H         1 <1>         0.035640 
     37 H          -4.132718    0.564993    1.197535 H         1 <1>         0.035640 
     38 H           1.845667    0.212583   -1.059836 H         1 <1>         0.062892 
     39 H           1.599178   -2.175440   -1.477033 H         1 <1>         0.035640 
     40 H           2.713812   -3.362758   -0.771825 H         1 <1>         0.035640 
     41 H          -2.729949    5.183031    0.647845 H         1 <1>         0.064337 
     42 H           6.403623   -0.733673    0.842402 H         1 <1>         0.066930 
     43 H           2.213170    4.661451   -1.866119 H         1 <1>         0.210380 
     44 H          -3.004475    0.550158   -1.500457 H         1 <1>         0.057472 
     45 H           1.732377   -2.359786    1.599892 H         1 <1>         0.057472 
     46 H          -4.780163    3.887824    0.636031 H         1 <1>         0.217325 
     47 H           6.815391    1.647019    0.583151 H         1 <1>         0.217341 
     48 H          -4.377479   -1.904659    1.063033 H         1 <1>         0.027427 
     49 H          -5.540426   -2.419327   -0.173387 H         1 <1>         0.027427 
     50 H          -3.936642   -3.198922   -0.072922 H         1 <1>         0.027427 
     51 H          -3.691543   -0.977500   -3.165724 H         1 <1>         0.027427 
     52 H          -3.580877   -2.661960   -2.599520 H         1 <1>         0.027427 
     53 H          -5.166993   -1.839666   -2.667878 H         1 <1>         0.027427 
     54 H           4.227171   -3.279123    1.149924 H         1 <1>         0.217326 
     55 H          -0.321987   -2.720700    2.738898 H         1 <1>         0.027427 
     56 H          -1.775470   -2.657710    1.714433 H         1 <1>         0.027427 
     57 H          -0.996168   -4.226159    2.063579 H         1 <1>         0.027427 
     58 H          -0.000491   -3.869952   -1.422424 H         1 <1>         0.027427 
     59 H          -1.460830   -4.188820   -0.479445 H         1 <1>         0.027427 
     60 H          -1.168185   -2.543156   -1.114614 H         1 <1>         0.027427 
@<TRIPOS>BOND
     1    7    1 1    
     2    1   43 1    
     3    9    2 2    
     4   17    3 1    
     5    3   46 1    
     6   19    4 1    
     7    4   47 1    
     8   21    5 1    
     9    5   54 1    
    10    7    6 1    
    11    6    8 1    
    12    6   31 1    
    13    6   32 1    
    14    9    7 1    
    15    7   33 1    
    16    8   12 2    
    17    8   13 1    
    18   11    9 1    
    19   12   10 1    
    20   10   15 1    
    21   10   17 2    
    22   16   11 1    
    23   11   19 2    
    24   12   34 1    
    25   13   20 2    
    26   13   35 1    
    27   14   16 2    
    28   14   18 1    
    29   14   21 1    
    30   15   23 1    
    31   15   36 1    
    32   15   37 1    
    33   16   38 1    
    34   17   20 1    
    35   18   24 1    
    36   18   39 1    
    37   18   40 1    
    38   19   22 1    
    39   20   41 1    
    40   21   22 2    
    41   22   42 1    
    42   23   25 2    
    43   23   44 1    
    44   24   26 2    
    45   24   45 1    
    46   25   27 1    
    47   25   28 1    
    48   26   29 1    
    49   26   30 1    
    50   27   48 1    
    51   27   49 1    
    52   27   50 1    
    53   28   51 1    
    54   28   52 1    
    55   28   53 1    
    56   29   55 1    
    57   29   56 1    
    58   29   57 1    
    59   30   58 1    
    60   30   59 1    
    61   30   60 1    
@<TRIPOS>SUBSTRUCTURE
     1 ****        1 TEMP              0 ****  ****    0 ROOT 
@<TRIPOS>NORMAL
@<TRIPOS>FF_PBC
FORCE_FIELD_SETUP_FEATURE Force Field Setup information
v1.0  0 0.000000 0.000000 0.000000 0.000000 0.000000 0.000000 NONE 0 0 0 0 1 0 0 0 0 0 0 0 0
