@<TRIPOS>MOLECULE
MOL000052
   19    18     1     1     0
SMALL
USER_CHARGES


@<TRIPOS>ATOM
      1 C           2.278470    0.103575    0.089411 C.2       1 <1>         0.000000 
      2 N           1.072140   -1.687358    1.231484 N.3       1 <1>         0.000000 
      3 C           1.023001   -0.733404    0.102294 C.3       1 <1>         0.000000 
      4 C          -0.244364    0.175025    0.167765 C.3       1 <1>         0.000000 
      5 C          -1.184520   -0.078232   -1.041946 C.3       1 <1>         0.000000 
      6 C          -2.437034    0.762716   -1.022352 C.2       1 <1>         0.000000 
      7 O          -3.267460    0.662750   -1.914192 O.2       1 <1>         0.000000 
      8 O          -2.576197    1.603993    0.009707 O.3       1 <1>         0.000000 
      9 O           2.711838    0.582017   -0.949016 O.2       1 <1>         0.000000 
     10 O           2.862244    0.280154    1.279025 O.3       1 <1>         0.000000 
     11 H           0.190234   -2.316093    1.245786 H         1 <1>         0.000000 
     12 H           1.154377   -1.160394    2.173487 H         1 <1>         0.000000 
     13 H           1.037008   -1.336658   -0.820823 H         1 <1>         0.000000 
     14 H          -0.803293   -0.022464    1.097446 H         1 <1>         0.000000 
     15 H           0.040516    1.241121    0.173063 H         1 <1>         0.000000 
     16 H          -0.639527    0.140632   -1.974893 H         1 <1>         0.000000 
     17 H          -1.485241   -1.138615   -1.054193 H         1 <1>         0.000000 
     18 H          -3.381319    2.109356   -0.021988 H         1 <1>         0.000000 
     19 H           3.649226    0.811780    1.230134 H         1 <1>         0.000000 
@<TRIPOS>BOND
     1    1    3 1    
     2    1    9 2    
     3    1   10 1    
     4    3    2 1    
     5    2   11 1    
     6    2   12 1    
     7    3    4 1    
     8    3   13 1    
     9    4    5 1    
    10    4   14 1    
    11    4   15 1    
    12    5    6 1    
    13    5   16 1    
    14    5   17 1    
    15    6    7 2    
    16    6    8 1    
    17    8   18 1    
    18   10   19 1    
@<TRIPOS>SUBSTRUCTURE
     1 ****        1 TEMP              0 ****  ****    0 ROOT 
@<TRIPOS>NORMAL
@<TRIPOS>FF_PBC
FORCE_FIELD_SETUP_FEATURE Force Field Setup information
v1.0  0 0.000000 0.000000 0.000000 0.000000 0.000000 0.000000 NONE 0 0 0 0 0 0 0 0 0 0 0 0 0
