@<TRIPOS>MOLECULE
MOL005344
  106   110     1     1     0
SMALL
GASTEIGER


@<TRIPOS>ATOM
      1 O           1.559639    3.571673    0.458500 O.3       1 <1>        -0.391475 
      2 O          -3.988648   -2.167151    0.201834 O.3       1 <1>        -0.344892 
      3 O           3.837417    4.739491   -0.196681 O.3       1 <1>        -0.388552 
      4 O          -4.831573   -1.971397    2.394308 O.3       1 <1>        -0.340523 
      5 O          -7.370718   -0.929657    1.428017 O.3       1 <1>        -0.384104 
      6 O          -6.163676   -3.965256   -0.284997 O.3       1 <1>        -0.386401 
      7 O          -7.602746   -3.125089    3.028795 O.3       1 <1>        -0.386488 
      8 O          -2.749008   -3.968832    2.481137 O.3       1 <1>        -0.392366 
      9 C           1.389680   -0.222176   -1.624220 C.3       1 <1>        -0.022908 
     10 C           2.360572    0.907170   -2.208307 C.3       1 <1>        -0.020884 
     11 C           0.032405    0.463563   -1.187078 C.3       1 <1>        -0.027109 
     12 C          -1.197092   -0.481648   -0.832470 C.3       1 <1>        -0.025166 
     13 C           2.639991    1.912699   -1.042646 C.3       1 <1>        -0.003645 
     14 C          -1.411449   -1.507957   -2.008367 C.3       1 <1>        -0.027835 
     15 C           1.056286   -1.280664   -2.726339 C.3       1 <1>        -0.046558 
     16 C           0.272792    1.655268   -0.188459 C.3       1 <1>        -0.022712 
     17 C           3.924758    2.687694   -1.446577 C.3       1 <1>        -0.006683 
     18 C           1.348835    2.682058   -0.650311 C.3       1 <1>         0.059199 
     19 C           3.806984    0.456615   -2.623145 C.3       1 <1>        -0.046422 
     20 C          -0.093036   -2.265468   -2.359902 C.3       1 <1>        -0.048618 
     21 C          -2.689098   -2.445040   -1.930297 C.3       1 <1>        -0.005230 
     22 C           4.781394    1.535145   -2.053980 C.3       1 <1>        -0.046740 
     23 C          -2.507982    0.392787   -0.723981 C.3       1 <1>        -0.044719 
     24 C           2.066284   -0.982082   -0.412627 C.3       1 <1>        -0.058782 
     25 C           1.830761    1.650928   -3.505317 C.3       1 <1>        -0.058710 
     26 C          -0.980213   -1.200811    0.542193 C.3       1 <1>        -0.059018 
     27 C          -3.885792   -1.744075   -1.182232 C.3       1 <1>         0.067174 
     28 C          -3.778780   -0.211386   -1.393081 C.3       1 <1>        -0.025470 
     29 C           4.662395    3.566825   -0.369443 C.3       1 <1>         0.066753 
     30 C          -3.162556   -2.792031   -3.389011 C.3       1 <1>        -0.057181 
     31 C          -2.393592   -3.823694   -1.261243 C.3       1 <1>        -0.057181 
     32 C           4.842220    2.854859    1.014099 C.3       1 <1>        -0.020552 
     33 C           6.032282    4.027568   -0.954536 C.3       1 <1>        -0.035798 
     34 C           5.769440    3.577626    2.032262 C.3       1 <1>        -0.031929 
     35 C          -4.992774   -1.534158    1.032710 C.3       1 <1>         0.188229 
     36 C          -6.478325   -1.711202    0.604013 C.3       1 <1>         0.134121 
     37 C           5.702478    2.867415    3.366603 C.2       1 <1>        -0.085195 
     38 C          -6.869472   -3.204953    0.717053 C.3       1 <1>         0.114061 
     39 C          -5.160642   -3.355741    2.628618 C.3       1 <1>         0.113005 
     40 C          -6.605890   -3.708890    2.163171 C.3       1 <1>         0.111896 
     41 C           4.897792    3.208682    4.386933 C.2       1 <1>        -0.079616 
     42 C          -4.087259   -4.359893    2.118909 C.3       1 <1>         0.073015 
     43 C           4.933047    2.456259    5.700034 C.3       1 <1>        -0.044050 
     44 C           3.907160    4.351711    4.319475 C.3       1 <1>        -0.044050 
     45 H          -0.336197    0.952297   -2.092832 H         1 <1>         0.031235 
     46 H           2.939580    1.374124   -0.138244 H         1 <1>         0.033467 
     47 H          -1.584735   -0.868756   -2.888792 H         1 <1>         0.031210 
     48 H           1.967625   -1.844967   -2.982690 H         1 <1>         0.027087 
     49 H           0.700771   -0.798657   -3.644531 H         1 <1>         0.027087 
     50 H          -0.646344    2.231657   -0.009204 H         1 <1>         0.029314 
     51 H           0.601112    1.306999    0.797789 H         1 <1>         0.029314 
     52 H           3.662126    3.401537   -2.239805 H         1 <1>         0.033201 
     53 H           0.968723    3.286993   -1.488239 H         1 <1>         0.059620 
     54 H           3.940042    0.401264   -3.716407 H         1 <1>         0.027088 
     55 H           4.095416   -0.548163   -2.288831 H         1 <1>         0.027088 
     56 H          -0.240518   -2.903668   -3.244840 H         1 <1>         0.026846 
     57 H           0.192685   -2.948080   -1.552744 H         1 <1>         0.026846 
     58 H           5.470141    1.915012   -2.827319 H         1 <1>         0.026910 
     59 H           5.391336    1.057350   -1.273380 H         1 <1>         0.026910 
     60 H          -2.718486    0.616664    0.333635 H         1 <1>         0.027149 
     61 H          -2.407465    1.370812   -1.221066 H         1 <1>         0.027149 
     62 H           3.156368   -0.903499   -0.367941 H         1 <1>         0.023533 
     63 H           1.893751   -2.062904   -0.422196 H         1 <1>         0.023533 
     64 H           1.727725   -0.620306    0.563088 H         1 <1>         0.023533 
     65 H           2.526843    2.424459   -3.850689 H         1 <1>         0.023534 
     66 H           0.862865    2.155262   -3.435391 H         1 <1>         0.023534 
     67 H           1.759120    0.973717   -4.365760 H         1 <1>         0.023534 
     68 H          -0.237527   -2.001238    0.509843 H         1 <1>         0.023525 
     69 H          -1.893268   -1.658628    0.923206 H         1 <1>         0.023525 
     70 H          -0.680713   -0.492826    1.323878 H         1 <1>         0.023525 
     71 H          -4.820434   -2.091640   -1.647119 H         1 <1>         0.060224 
     72 H          -4.680495    0.311689   -1.038073 H         1 <1>         0.029047 
     73 H          -3.752966   -0.019016   -2.477843 H         1 <1>         0.029047 
     74 H          -2.378661   -3.287450   -3.977107 H         1 <1>         0.023587 
     75 H          -3.472018   -1.894374   -3.943956 H         1 <1>         0.023587 
     76 H          -4.023242   -3.479240   -3.375567 H         1 <1>         0.023587 
     77 H          -3.323535   -4.407473   -1.198635 H         1 <1>         0.023587 
     78 H          -1.984724   -3.716580   -0.248932 H         1 <1>         0.023587 
     79 H          -1.684818   -4.424396   -1.849262 H         1 <1>         0.023587 
     80 H           2.182212    4.262305    0.250651 H         1 <1>         0.209789 
     81 H           5.244361    1.839909    0.886006 H         1 <1>         0.029579 
     82 H           3.854121    2.766138    1.489538 H         1 <1>         0.029579 
     83 H           5.896616    4.440887   -1.965532 H         1 <1>         0.025730 
     84 H           6.489731    4.817392   -0.341113 H         1 <1>         0.025730 
     85 H           6.740384    3.187756   -1.008708 H         1 <1>         0.025730 
     86 H           4.237846    5.420899    0.335125 H         1 <1>         0.210159 
     87 H           5.505657    4.637390    2.149638 H         1 <1>         0.030829 
     88 H           6.815534    3.544316    1.687811 H         1 <1>         0.030829 
     89 H          -4.771815   -0.462554    1.118418 H         1 <1>         0.093750 
     90 H          -6.634296   -1.385055   -0.436108 H         1 <1>         0.067095 
     91 H           6.369563    2.011568    3.481821 H         1 <1>         0.057146 
     92 H          -7.952799   -3.279902    0.513926 H         1 <1>         0.064758 
     93 H          -5.129626   -3.448641    3.725919 H         1 <1>         0.064668 
     94 H          -6.752441   -4.802554    2.186078 H         1 <1>         0.064673 
     95 H          -7.197400    0.006009    1.408826 H         1 <1>         0.210110 
     96 H          -4.291444   -5.365723    2.523838 H         1 <1>         0.058370 
     97 H          -4.126083   -4.440363    1.029397 H         1 <1>         0.058370 
     98 H          -6.409287   -4.884933   -0.309912 H         1 <1>         0.210005 
     99 H          -7.546460   -3.403149    3.937454 H         1 <1>         0.210004 
    100 H           4.414582    5.283824    4.609163 H         1 <1>         0.027427 
    101 H           3.472568    4.474715    3.317061 H         1 <1>         0.027427 
    102 H           3.069186    4.182951    5.012677 H         1 <1>         0.027427 
    103 H           5.722376    1.690328    5.738345 H         1 <1>         0.027427 
    104 H           5.108928    3.167197    6.521430 H         1 <1>         0.027427 
    105 H           3.965420    1.958329    5.863579 H         1 <1>         0.027427 
    106 H          -2.628299   -3.862529    3.419061 H         1 <1>         0.209508 
@<TRIPOS>BOND
     1   18    1 1    
     2    1   80 1    
     3    2   27 1    
     4   35    2 1    
     5   29    3 1    
     6    3   86 1    
     7    4   35 1    
     8   39    4 1    
     9   36    5 1    
    10    5   95 1    
    11   38    6 1    
    12    6   98 1    
    13   40    7 1    
    14    7   99 1    
    15   42    8 1    
    16    8  106 1    
    17    9   10 1    
    18   11    9 1    
    19   15    9 1    
    20    9   24 1    
    21   10   13 1    
    22   10   19 1    
    23   10   25 1    
    24   12   11 1    
    25   11   16 1    
    26   11   45 1    
    27   14   12 1    
    28   23   12 1    
    29   12   26 1    
    30   13   17 1    
    31   18   13 1    
    32   13   46 1    
    33   14   20 1    
    34   21   14 1    
    35   14   47 1    
    36   20   15 1    
    37   15   48 1    
    38   15   49 1    
    39   16   18 1    
    40   16   50 1    
    41   16   51 1    
    42   17   22 1    
    43   17   29 1    
    44   17   52 1    
    45   18   53 1    
    46   19   22 1    
    47   19   54 1    
    48   19   55 1    
    49   20   56 1    
    50   20   57 1    
    51   27   21 1    
    52   21   30 1    
    53   21   31 1    
    54   22   58 1    
    55   22   59 1    
    56   28   23 1    
    57   23   60 1    
    58   23   61 1    
    59   24   62 1    
    60   24   63 1    
    61   24   64 1    
    62   25   65 1    
    63   25   66 1    
    64   25   67 1    
    65   26   68 1    
    66   26   69 1    
    67   26   70 1    
    68   27   28 1    
    69   27   71 1    
    70   28   72 1    
    71   28   73 1    
    72   29   32 1    
    73   29   33 1    
    74   30   74 1    
    75   30   75 1    
    76   30   76 1    
    77   31   77 1    
    78   31   78 1    
    79   31   79 1    
    80   32   34 1    
    81   32   81 1    
    82   32   82 1    
    83   33   83 1    
    84   33   84 1    
    85   33   85 1    
    86   34   37 1    
    87   34   87 1    
    88   34   88 1    
    89   35   36 1    
    90   35   89 1    
    91   38   36 1    
    92   36   90 1    
    93   37   41 2    
    94   37   91 1    
    95   40   38 1    
    96   38   92 1    
    97   39   40 1    
    98   39   42 1    
    99   39   93 1    
   100   40   94 1    
   101   41   43 1    
   102   41   44 1    
   103   42   96 1    
   104   42   97 1    
   105   43  103 1    
   106   43  104 1    
   107   43  105 1    
   108   44  100 1    
   109   44  101 1    
   110   44  102 1    
@<TRIPOS>SUBSTRUCTURE
     1 ****        9 TEMP              0 ****  ****    0 ROOT 
@<TRIPOS>NORMAL
@<TRIPOS>FF_PBC
FORCE_FIELD_SETUP_FEATURE Force Field Setup information
v1.0  0 0.000000 0.000000 0.000000 0.000000 0.000000 0.000000 NONE 0 0 0 0 1 0 0 0 0 0 0 0 0
