@<TRIPOS>MOLECULE
MOL000458
   77    80     1     1     0
SMALL
GASTEIGER


@<TRIPOS>ATOM
      1 C          -6.164904   -2.292164   -3.733616 C.2       1 <1>         0.046330 
      2 C          -5.845399   -1.004870   -3.882262 C.2       1 <1>        -0.057827 
      3 C          -4.578554   -0.405041   -3.341928 C.3       1 <1>        -0.026428 
      4 C          -5.290545   -3.281693   -2.996092 C.3       1 <1>        -0.003305 
      5 C          -3.935110   -2.727830   -2.445612 C.3       1 <1>        -0.029279 
      6 C          -2.715720   -3.077751   -3.335326 C.3       1 <1>        -0.049069 
      7 C          -1.397927   -2.861927   -2.533935 C.3       1 <1>        -0.049394 
      8 C          -1.509169   -1.751190   -1.438441 C.3       1 <1>        -0.034349 
      9 C          -0.103076   -1.139449   -1.172143 C.3       1 <1>        -0.032260 
     10 C           0.987825   -2.106571   -0.672957 C.3       1 <1>        -0.049170 
     11 C           2.100283   -1.133973   -0.184730 C.3       1 <1>        -0.049187 
     12 C           1.489417    0.308165   -0.154760 C.3       1 <1>        -0.032778 
     13 C           2.151191    1.212727    0.948436 C.3       1 <1>        -0.040533 
     14 C           3.693559    1.318370    0.686117 C.3       1 <1>        -0.049941 
     15 C           4.530906    2.196645    1.672770 C.3       1 <1>        -0.049975 
     16 C           4.346578    1.914263    3.201864 C.3       1 <1>        -0.041535 
     17 C           4.776494    0.451476    3.523113 C.3       1 <1>        -0.062180 
     18 C           5.118194    2.977287    4.065953 C.3       1 <1>        -0.044135 
     19 C           4.386369    4.355932    4.082619 C.3       1 <1>        -0.062422 
     20 C           5.332938    2.539688    5.545404 C.3       1 <1>        -0.062422 
     21 C           1.512809    2.631003    1.008828 C.3       1 <1>        -0.062146 
     22 C          -0.056309    0.036874   -0.153846 C.3       1 <1>        -0.025894 
     23 C          -0.517552   -0.352413    1.290778 C.3       1 <1>        -0.059038 
     24 C          -0.967485    1.144820   -0.775227 C.3       1 <1>        -0.046822 
     25 C          -2.418241    0.627103   -0.999343 C.3       1 <1>        -0.048926 
     26 C          -2.490911   -0.641047   -1.906922 C.3       1 <1>        -0.031970 
     27 C          -3.957712   -1.189179   -2.140119 C.3       1 <1>        -0.022297 
     28 C          -4.885257   -0.996144   -0.897222 C.3       1 <1>        -0.058755 
     29 O          -7.316135   -2.744285   -4.252882 O.3       1 <1>        -0.364408 
     30 H          -2.061317   -0.319921   -2.869942 H         1 <1>         0.030896 
     31 H          -1.900473   -2.188616   -0.507995 H         1 <1>         0.030645 
     32 H           0.251865   -0.759186   -2.147934 H         1 <1>         0.030887 
     33 H          -6.535937   -0.366250   -4.435772 H         1 <1>         0.059435 
     34 H          -3.909644   -0.367012   -4.213726 H         1 <1>         0.031355 
     35 H          -4.778615    0.634675   -3.039896 H         1 <1>         0.031355 
     36 H          -5.910249   -3.640148   -2.156618 H         1 <1>         0.033538 
     37 H          -5.109164   -4.147558   -3.651050 H         1 <1>         0.033538 
     38 H          -3.751764   -3.294006   -1.514584 H         1 <1>         0.030996 
     39 H          -2.742908   -4.128353   -3.670189 H         1 <1>         0.026830 
     40 H          -2.745858   -2.449631   -4.238537 H         1 <1>         0.026830 
     41 H          -0.611986   -2.635614   -3.272447 H         1 <1>         0.026820 
     42 H          -1.104623   -3.797211   -2.027354 H         1 <1>         0.026820 
     43 H           1.338880   -2.790248   -1.463650 H         1 <1>         0.026828 
     44 H           0.584450   -2.720269    0.148723 H         1 <1>         0.026828 
     45 H           2.441881   -1.458954    0.811061 H         1 <1>         0.026828 
     46 H           2.964800   -1.170365   -0.869441 H         1 <1>         0.026828 
     47 H           1.719778    0.794426   -1.119014 H         1 <1>         0.030870 
     48 H           2.003476    0.728987    1.925499 H         1 <1>         0.030096 
     49 H           4.144649    0.315676    0.674631 H         1 <1>         0.026802 
     50 H           3.840096    1.732802   -0.326212 H         1 <1>         0.026802 
     51 H           5.597301    2.045723    1.433423 H         1 <1>         0.026802 
     52 H           4.323627    3.247406    1.435785 H         1 <1>         0.026802 
     53 H           3.282588    1.999214    3.470285 H         1 <1>         0.030062 
     54 H           4.548453    0.180346    4.564378 H         1 <1>         0.023250 
     55 H           4.235860   -0.276458    2.902559 H         1 <1>         0.023250 
     56 H           5.856488    0.325675    3.349682 H         1 <1>         0.023250 
     57 H           6.121308    3.127370    3.629548 H         1 <1>         0.029806 
     58 H           4.942867    5.083305    4.694583 H         1 <1>         0.023242 
     59 H           4.282018    4.800263    3.084278 H         1 <1>         0.023242 
     60 H           3.380830    4.245943    4.517672 H         1 <1>         0.023242 
     61 H           5.790396    3.351503    6.132097 H         1 <1>         0.023242 
     62 H           6.014823    1.679132    5.617493 H         1 <1>         0.023242 
     63 H           4.369378    2.279238    6.009627 H         1 <1>         0.023242 
     64 H           2.053765    3.308210    1.681766 H         1 <1>         0.023250 
     65 H           0.494890    2.587599    1.410923 H         1 <1>         0.023250 
     66 H           1.489043    3.083915    0.006326 H         1 <1>         0.023250 
     67 H           0.195060   -1.022471    1.789863 H         1 <1>         0.023524 
     68 H          -1.492343   -0.851976    1.322455 H         1 <1>         0.023524 
     69 H          -0.600687    0.549026    1.911584 H         1 <1>         0.023524 
     70 H          -1.034621    2.031050   -0.131981 H         1 <1>         0.027078 
     71 H          -0.559558    1.480336   -1.742676 H         1 <1>         0.027078 
     72 H          -3.011307    1.435335   -1.459769 H         1 <1>         0.026837 
     73 H          -2.850926    0.429106   -0.009744 H         1 <1>         0.026837 
     74 H          -5.067190    0.065759   -0.676646 H         1 <1>         0.023534 
     75 H          -4.441237   -1.467744   -0.007410 H         1 <1>         0.023534 
     76 H          -5.873817   -1.447952   -1.059623 H         1 <1>         0.023534 
     77 H          -7.495532   -3.668264   -4.111674 H         1 <1>         0.216867 
@<TRIPOS>BOND
     1    1    2 2    
     2    1    4 1    
     3    1   29 1    
     4    2    3 1    
     5    2   33 1    
     6    3   27 1    
     7    3   34 1    
     8    3   35 1    
     9    4    5 1    
    10    4   36 1    
    11    4   37 1    
    12    5    6 1    
    13    5   27 1    
    14    5   38 1    
    15    6    7 1    
    16    6   39 1    
    17    6   40 1    
    18    7    8 1    
    19    7   41 1    
    20    7   42 1    
    21    8    9 1    
    22    8   26 1    
    23    8   31 1    
    24    9   10 1    
    25    9   22 1    
    26    9   32 1    
    27   10   11 1    
    28   10   43 1    
    29   10   44 1    
    30   11   12 1    
    31   11   45 1    
    32   11   46 1    
    33   12   13 1    
    34   12   22 1    
    35   12   47 1    
    36   13   14 1    
    37   13   21 1    
    38   13   48 1    
    39   14   15 1    
    40   14   49 1    
    41   14   50 1    
    42   15   16 1    
    43   15   51 1    
    44   15   52 1    
    45   16   17 1    
    46   16   18 1    
    47   16   53 1    
    48   17   54 1    
    49   17   55 1    
    50   17   56 1    
    51   18   19 1    
    52   18   20 1    
    53   18   57 1    
    54   19   58 1    
    55   19   59 1    
    56   19   60 1    
    57   20   61 1    
    58   20   62 1    
    59   20   63 1    
    60   21   64 1    
    61   21   65 1    
    62   21   66 1    
    63   22   23 1    
    64   22   24 1    
    65   23   67 1    
    66   23   68 1    
    67   23   69 1    
    68   24   25 1    
    69   24   70 1    
    70   24   71 1    
    71   25   26 1    
    72   25   72 1    
    73   25   73 1    
    74   26   27 1    
    75   26   30 1    
    76   27   28 1    
    77   28   74 1    
    78   28   75 1    
    79   28   76 1    
    80   29   77 1    
@<TRIPOS>SUBSTRUCTURE
     1 ****        1 TEMP              0 ****  ****    0 ROOT 
@<TRIPOS>NORMAL
@<TRIPOS>FF_PBC
FORCE_FIELD_SETUP_FEATURE Force Field Setup information
v1.0  0 0.000000 0.000000 0.000000 0.000000 0.000000 0.000000 NONE 0 0 0 0 1 0 0 0 0 0 0 0 0
