@<TRIPOS>MOLECULE
MOL002453
   26    27     1     1     0
SMALL
GASTEIGER


@<TRIPOS>ATOM
      1 C          -0.940008    0.477847    0.689085 C.3       1 <1>        -0.031640 
      2 C           0.476665   -0.187132    0.732897 C.3       1 <1>        -0.011042 
      3 C           0.551171   -1.301263    1.818872 C.3       1 <1>        -0.055841 
      4 C           1.653825    0.808221    0.942762 C.3       1 <1>        -0.055841 
      5 C           0.461657   -0.753879   -0.663143 C.2       1 <1>        -0.067616 
      6 C           1.446219   -1.480853   -1.203130 C.2       1 <1>        -0.098663 
      7 C          -0.814420   -0.393655   -1.378393 C.3       1 <1>        -0.019347 
      8 C          -0.750579    1.132368   -1.645320 C.3       1 <1>        -0.046216 
      9 C          -0.970581    1.734679   -0.227781 C.3       1 <1>        -0.048877 
     10 C          -1.781581   -0.489666   -0.182858 C.3       1 <1>        -0.042880 
     11 H          -1.355741    0.675735    1.690483 H         1 <1>         0.030919 
     12 H           0.448802   -0.847679    2.816432 H         1 <1>         0.023811 
     13 H           1.519964   -1.820959    1.775505 H         1 <1>         0.023811 
     14 H          -0.232962   -2.061346    1.706762 H         1 <1>         0.023811 
     15 H           2.597803    0.264552    1.097887 H         1 <1>         0.023811 
     16 H           1.804081    1.459276    0.069781 H         1 <1>         0.023811 
     17 H           1.461758    1.430248    1.830045 H         1 <1>         0.023811 
     18 H           1.363303   -1.857422   -2.221803 H         1 <1>         0.053466 
     19 H           2.349952   -1.711141   -0.641285 H         1 <1>         0.053466 
     20 H          -1.062649   -1.015743   -2.253593 H         1 <1>         0.034577 
     21 H          -1.553996    1.437693   -2.336245 H         1 <1>         0.027106 
     22 H           0.219649    1.416505   -2.084791 H         1 <1>         0.027106 
     23 H          -0.247051    2.516191    0.045444 H         1 <1>         0.026838 
     24 H          -1.971834    2.194740   -0.163626 H         1 <1>         0.026838 
     25 H          -2.790959   -0.114062   -0.421285 H         1 <1>         0.027389 
     26 H          -1.882387   -1.513355    0.207397 H         1 <1>         0.027389 
@<TRIPOS>BOND
     1    1    2 1    
     2    1    9 1    
     3    1   10 1    
     4    1   11 1    
     5    2    3 1    
     6    2    4 1    
     7    2    5 1    
     8    3   12 1    
     9    3   13 1    
    10    3   14 1    
    11    4   15 1    
    12    4   16 1    
    13    4   17 1    
    14    5    6 2    
    15    5    7 1    
    16    6   18 1    
    17    6   19 1    
    18    7    8 1    
    19    7   10 1    
    20    7   20 1    
    21    8    9 1    
    22    8   21 1    
    23    8   22 1    
    24    9   23 1    
    25    9   24 1    
    26   10   25 1    
    27   10   26 1    
@<TRIPOS>SUBSTRUCTURE
     1 ****        1 TEMP              0 ****  ****    0 ROOT 
@<TRIPOS>NORMAL
@<TRIPOS>FF_PBC
FORCE_FIELD_SETUP_FEATURE Force Field Setup information
v1.0  0 0.000000 0.000000 0.000000 0.000000 0.000000 0.000000 NONE 0 0 0 0 1 0 0 0 0 0 0 0 0
