@<TRIPOS>MOLECULE
MOL008046
   31    33     1     1     0
SMALL
GASTEIGER


@<TRIPOS>ATOM
      1 O           0.084953    0.421068    0.038285 O.3       1 <1>        -0.285633 
      2 O          -1.325078    2.254742    0.054890 O.3       1 <1>        -0.286517 
      3 O           4.992223    0.856964    0.027735 O.3       1 <1>        -0.358955 
      4 O           2.849844   -3.619941    0.019358 O.3       1 <1>        -0.359667 
      5 O           3.260130    2.948655    0.038207 O.2       1 <1>        -0.286946 
      6 O          -5.424058   -1.674422    0.055382 O.3       1 <1>        -0.359830 
      7 C           2.573214    0.652165    0.033378 C.ar      1 <1>         0.082089 
      8 C           1.348617   -0.175963    0.033452 C.ar      1 <1>         0.101043 
      9 C           3.849161    0.055300    0.028088 C.ar      1 <1>         0.088315 
     10 C           2.345080    2.141819    0.039444 C.2       1 <1>         0.195499 
     11 C           1.453851   -1.569152    0.028778 C.ar      1 <1>        -0.000457 
     12 C          -0.086268    1.756002    0.046637 C.2       1 <1>         0.198112 
     13 C           0.952474    2.600317    0.047330 C.2       1 <1>         0.040972 
     14 C           2.782298   -2.224397    0.023658 C.ar      1 <1>         0.077520 
     15 C           3.954998   -1.426687    0.023145 C.ar      1 <1>        -0.001303 
     16 C          -2.331663    1.292506    0.049533 C.ar      1 <1>         0.085498 
     17 C          -2.845532    0.811378    1.256339 C.ar      1 <1>        -0.028666 
     18 C          -2.853691    0.777335   -1.237151 C.ar      1 <1>        -0.028666 
     19 C          -3.914899   -0.215143    1.248712 C.ar      1 <1>        -0.029486 
     20 C          -3.867360   -0.196042   -1.246624 C.ar      1 <1>        -0.029486 
     21 C          -4.416144   -0.708636    0.035583 C.ar      1 <1>         0.072739 
     22 H           0.556497   -2.177469    0.028943 H         1 <1>         0.066948 
     23 H           0.762488    3.672859    0.054030 H         1 <1>         0.070334 
     24 H           4.932405   -1.895899    0.019213 H         1 <1>         0.066923 
     25 H          -2.458638    1.190452    2.195831 H         1 <1>         0.064424 
     26 H          -2.446366    1.156995   -2.167979 H         1 <1>         0.064424 
     27 H          -4.314450   -0.589095    2.185008 H         1 <1>         0.064400 
     28 H          -4.244699   -0.569189   -2.192736 H         1 <1>         0.064400 
     29 H           5.809289    0.371940    0.020701 H         1 <1>         0.217342 
     30 H           3.731737   -3.975181    0.023064 H         1 <1>         0.217316 
     31 H          -5.709410   -1.944485   -0.809832 H         1 <1>         0.217313 
@<TRIPOS>BOND
     1    1    8 1    
     2   12    1 1    
     3    2   12 1    
     4   16    2 1    
     5    9    3 1    
     6    3   29 1    
     7   14    4 1    
     8    4   30 1    
     9   10    5 2    
    10   21    6 1    
    11    6   31 1    
    12    8    7 1    
    13    7    9 2    
    14   10    7 1    
    15    8   11 2    
    16    9   15 1    
    17   13   10 1    
    18   11   14 1    
    19   11   22 1    
    20   12   13 2    
    21   13   23 1    
    22   14   15 2    
    23   15   24 1    
    24   17   16 2    
    25   16   18 1    
    26   19   17 1    
    27   17   25 1    
    28   18   20 2    
    29   18   26 1    
    30   19   21 2    
    31   19   27 1    
    32   20   21 1    
    33   20   28 1    
@<TRIPOS>SUBSTRUCTURE
     1 ****        1 TEMP              0 ****  ****    0 ROOT 
@<TRIPOS>NORMAL
@<TRIPOS>FF_PBC
FORCE_FIELD_SETUP_FEATURE Force Field Setup information
v1.0  0 0.000000 0.000000 0.000000 0.000000 0.000000 0.000000 NONE 0 0 0 0 1 0 0 0 0 0 0 0 0
