@<TRIPOS>MOLECULE
MOL008990
   34    34     1     1     0
SMALL
GASTEIGER


@<TRIPOS>ATOM
      1 C           0.011599   -0.084935   -0.130806 C.3       1 <1>        -0.008088 
      2 C          -0.523698   -1.571231   -0.120983 C.3       1 <1>         0.076393 
      3 C          -1.076255    0.993927   -0.407940 C.3       1 <1>        -0.043633 
      4 C           1.223721    0.137300   -1.076900 C.3       1 <1>        -0.029054 
      5 O          -1.020007   -1.900689    1.200518 O.3       1 <1>        -0.309039 
      6 C          -1.768300   -1.747332   -1.048355 C.3       1 <1>        -0.035218 
      7 C           0.501697   -2.651155   -0.598431 C.3       1 <1>        -0.035218 
      8 C          -0.501198    2.426972   -0.227754 C.3       1 <1>        -0.031655 
      9 C           1.616807    1.579085   -1.262389 C.2       1 <1>        -0.084672 
     10 C          -0.116494   -1.964343    2.192879 C.2       1 <1>         0.259544 
     11 C           0.855948    2.611228   -0.874429 C.2       1 <1>        -0.076509 
     12 C          -0.717824   -2.165677    3.560895 C.3       1 <1>         0.021452 
     13 O           1.090924   -1.871753    2.045814 O.2       1 <1>        -0.265264 
     14 C           1.345679    4.029694   -1.059003 C.3       1 <1>        -0.043787 
     15 H           0.376481    0.167600    0.877299 H         1 <1>         0.033155 
     16 H          -1.446399    0.920251   -1.440862 H         1 <1>         0.027194 
     17 H          -1.932708    0.886059    0.279604 H         1 <1>         0.027194 
     18 H           1.019170   -0.286047   -2.067222 H         1 <1>         0.031097 
     19 H           2.117436   -0.348617   -0.653604 H         1 <1>         0.031097 
     20 H          -2.661343   -1.273367   -0.614128 H         1 <1>         0.025746 
     21 H          -1.593233   -1.319111   -2.047163 H         1 <1>         0.025746 
     22 H          -2.014593   -2.812987   -1.191224 H         1 <1>         0.025746 
     23 H           1.526214   -2.503619   -0.230041 H         1 <1>         0.025746 
     24 H           0.160704   -3.641395   -0.253048 H         1 <1>         0.025746 
     25 H           0.547817   -2.678187   -1.700612 H         1 <1>         0.025746 
     26 H          -1.239476    3.132383   -0.653666 H         1 <1>         0.030999 
     27 H          -0.408614    2.660530    0.847747 H         1 <1>         0.030999 
     28 H           2.585360    1.769449   -1.727042 H         1 <1>         0.057164 
     29 H           0.045087   -2.105256    4.354210 H         1 <1>         0.033023 
     30 H          -1.483360   -1.398928    3.756673 H         1 <1>         0.033023 
     31 H          -1.197531   -3.153179    3.608876 H         1 <1>         0.033023 
     32 H           0.523130    4.758014   -1.076568 H         1 <1>         0.027436 
     33 H           1.900280    4.124811   -2.004028 H         1 <1>         0.027436 
     34 H           2.018738    4.281675   -0.227588 H         1 <1>         0.027436 
@<TRIPOS>BOND
     1    1    2 1    
     2    1    3 1    
     3    1    4 1    
     4    1   15 1    
     5    2    5 1    
     6    2    6 1    
     7    2    7 1    
     8    3    8 1    
     9    3   16 1    
    10    3   17 1    
    11    4    9 1    
    12    4   18 1    
    13    4   19 1    
    14    5   10 1    
    15    6   20 1    
    16    6   21 1    
    17    6   22 1    
    18    7   23 1    
    19    7   24 1    
    20    7   25 1    
    21    8   11 1    
    22    8   26 1    
    23    8   27 1    
    24    9   11 2    
    25    9   28 1    
    26   10   12 1    
    27   10   13 2    
    28   11   14 1    
    29   12   29 1    
    30   12   30 1    
    31   12   31 1    
    32   14   32 1    
    33   14   33 1    
    34   14   34 1    
@<TRIPOS>SUBSTRUCTURE
     1 ****        1 TEMP              0 ****  ****    0 ROOT 
@<TRIPOS>NORMAL
@<TRIPOS>FF_PBC
FORCE_FIELD_SETUP_FEATURE Force Field Setup information
v1.0  0 0.000000 0.000000 0.000000 0.000000 0.000000 0.000000 NONE 0 0 0 0 1 0 0 0 0 0 0 0 0
