@<TRIPOS>MOLECULE
MOL003568
   39    41     1     1     0
SMALL
GASTEIGER


@<TRIPOS>ATOM
      1 C           1.188887    0.132959    0.489208 C.3       1 <1>        -0.005414 
      2 C           0.960546    1.008423   -0.779853 C.3       1 <1>        -0.022700 
      3 C          -0.196431    1.976501   -0.242185 C.3       1 <1>        -0.031374 
      4 C           1.310665    1.212322    1.611672 C.3       1 <1>        -0.043134 
      5 C          -0.108562   -0.664534    0.619558 C.2       1 <1>        -0.063592 
      6 C           0.600809    2.494395    1.046334 C.3       1 <1>        -0.048609 
      7 C          -1.532727    1.115633   -0.450822 C.3       1 <1>        -0.027864 
      8 C          -1.303609   -0.251228    0.193603 C.2       1 <1>        -0.066640 
      9 C          -2.414491   -1.228360    0.429422 C.3       1 <1>        -0.022164 
     10 C          -0.179831   -2.021846    1.259419 C.3       1 <1>        -0.030415 
     11 C           2.444875   -0.782277    0.434789 C.3       1 <1>        -0.055333 
     12 C           2.255096    1.797389   -1.215624 C.3       1 <1>        -0.058761 
     13 C           0.640258    0.138786   -2.057482 C.3       1 <1>        -0.058761 
     14 C          -1.559512   -2.499147    0.715145 C.3       1 <1>        -0.043038 
     15 C          -3.386899   -1.401213   -0.765337 C.3       1 <1>        -0.058684 
     16 H          -0.753332    1.881971    0.689063 H         1 <1>         0.030925 
     17 H           2.354071    1.444360    1.879996 H         1 <1>         0.027383 
     18 H           0.804063    0.845295    2.519262 H         1 <1>         0.027383 
     19 H           0.219393    3.132803    1.899360 H         1 <1>         0.026847 
     20 H           1.322534    3.218112    0.643324 H         1 <1>         0.026847 
     21 H          -2.545318    1.514046   -0.165802 H         1 <1>         0.031300 
     22 H          -1.680235    0.990448   -1.532201 H         1 <1>         0.031300 
     23 H          -2.960231   -0.915631    1.335857 H         1 <1>         0.034310 
     24 H           0.616082   -2.724557    0.969181 H         1 <1>         0.031042 
     25 H          -0.189207   -1.900400    2.353894 H         1 <1>         0.031042 
     26 H           2.564611   -1.297356    1.399929 H         1 <1>         0.023829 
     27 H           3.362751   -0.205141    0.254204 H         1 <1>         0.023829 
     28 H           2.349794   -1.535475   -0.360494 H         1 <1>         0.023829 
     29 H           1.947698    2.668749   -1.813950 H         1 <1>         0.023534 
     30 H           2.938844    1.203651   -1.841061 H         1 <1>         0.023534 
     31 H           2.899856    2.145648   -0.398200 H         1 <1>         0.023534 
     32 H          -0.143901   -0.622935   -1.959179 H         1 <1>         0.023534 
     33 H           0.361649    0.810741   -2.884095 H         1 <1>         0.023534 
     34 H           1.514834   -0.441175   -2.387729 H         1 <1>         0.023534 
     35 H          -2.064335   -3.202354    1.397329 H         1 <1>         0.027391 
     36 H          -1.380163   -3.019685   -0.241235 H         1 <1>         0.027391 
     37 H          -4.077201   -2.234268   -0.562450 H         1 <1>         0.023544 
     38 H          -3.977120   -0.484494   -0.914909 H         1 <1>         0.023544 
     39 H          -2.830258   -1.614654   -1.690767 H         1 <1>         0.023544 
@<TRIPOS>BOND
     1    1    2 1    
     2    1    4 1    
     3    1    5 1    
     4    1   11 1    
     5    2    3 1    
     6    2   12 1    
     7    2   13 1    
     8    3    6 1    
     9    3    7 1    
    10    3   16 1    
    11    4    6 1    
    12    4   17 1    
    13    4   18 1    
    14    5    8 2    
    15    5   10 1    
    16    6   19 1    
    17    6   20 1    
    18    7    8 1    
    19    7   21 1    
    20    7   22 1    
    21    8    9 1    
    22    9   14 1    
    23    9   15 1    
    24    9   23 1    
    25   10   14 1    
    26   10   24 1    
    27   10   25 1    
    28   11   26 1    
    29   11   27 1    
    30   11   28 1    
    31   12   29 1    
    32   12   30 1    
    33   12   31 1    
    34   13   32 1    
    35   13   33 1    
    36   13   34 1    
    37   14   35 1    
    38   14   36 1    
    39   15   37 1    
    40   15   38 1    
    41   15   39 1    
@<TRIPOS>SUBSTRUCTURE
     1 ****        1 TEMP              0 ****  ****    0 ROOT 
@<TRIPOS>NORMAL
@<TRIPOS>FF_PBC
FORCE_FIELD_SETUP_FEATURE Force Field Setup information
v1.0  0 0.000000 0.000000 0.000000 0.000000 0.000000 0.000000 NONE 0 0 0 0 1 0 0 0 0 0 0 0 0
