@<TRIPOS>MOLECULE
MOL004829
   45    47     1     1     0
SMALL
GASTEIGER


@<TRIPOS>ATOM
      1 O          -0.014317    0.516309    0.199773 O.3       1 <1>        -0.332702 
      2 O          -1.588840    3.832853   -0.314532 O.3       1 <1>        -0.380952 
      3 O           1.064216    4.313668   -0.851273 O.2       1 <1>        -0.289004 
      4 O           3.638943    3.778427   -0.433078 O.3       1 <1>        -0.358965 
      5 O           4.668348   -0.772199    1.039639 O.3       1 <1>        -0.359385 
      6 C          -0.919656    1.613346    0.425675 C.3       1 <1>         0.123200 
      7 C          -0.697953    2.739071   -0.612067 C.3       1 <1>         0.148230 
      8 C           1.346583    0.822240    0.242339 C.ar      1 <1>         0.096028 
      9 C           1.802743    2.180471   -0.133476 C.ar      1 <1>         0.080137 
     10 C           0.745418    3.171793   -0.556057 C.2       1 <1>         0.199204 
     11 C           2.270623   -0.157915    0.638259 C.ar      1 <1>         0.016855 
     12 C          -2.363795    1.106280    0.317326 C.ar      1 <1>        -0.015484 
     13 C           3.171469    2.505616   -0.090116 C.ar      1 <1>         0.088076 
     14 C           1.768424   -1.553934    1.034140 C.3       1 <1>        -0.004331 
     15 C           3.718766    0.179689    0.669609 C.ar      1 <1>         0.080968 
     16 C           4.142592    1.468121    0.326320 C.ar      1 <1>        -0.001035 
     17 C          -3.399008    1.762411    0.997691 C.ar      1 <1>        -0.056006 
     18 C          -2.679794   -0.083536   -0.512639 C.ar      1 <1>        -0.056006 
     19 C           1.647788   -2.405241   -0.207530 C.2       1 <1>        -0.080815 
     20 C          -4.793727    1.271624    0.894025 C.ar      1 <1>        -0.061419 
     21 C          -3.997316   -0.547344   -0.611610 C.ar      1 <1>        -0.061419 
     22 C           0.730272   -3.366876   -0.400156 C.2       1 <1>        -0.079306 
     23 C          -5.086304    0.148659    0.113145 C.ar      1 <1>        -0.061740 
     24 C           0.661701   -4.138461   -1.700076 C.3       1 <1>        -0.044040 
     25 C          -0.295597   -3.752800    0.642202 C.3       1 <1>        -0.044040 
     26 H          -0.750066    2.012710    1.439431 H         1 <1>         0.068214 
     27 H          -0.903160    2.332395   -1.616069 H         1 <1>         0.070645 
     28 H           2.469380   -2.026871    1.737921 H         1 <1>         0.035721 
     29 H           0.804653   -1.435992    1.551679 H         1 <1>         0.035721 
     30 H           5.197945    1.713460    0.359396 H         1 <1>         0.066932 
     31 H          -3.187731    2.636699    1.604785 H         1 <1>         0.062112 
     32 H          -1.888214   -0.598022   -1.047747 H         1 <1>         0.062112 
     33 H          -1.461623    4.568761   -0.906335 H         1 <1>         0.210495 
     34 H           2.372761   -2.205407   -0.997018 H         1 <1>         0.057473 
     35 H          -5.586594    1.786633    1.426426 H         1 <1>         0.061767 
     36 H          -4.225778   -1.416970   -1.219214 H         1 <1>         0.061767 
     37 H          -6.106809   -0.214428    0.036665 H         1 <1>         0.061758 
     38 H           2.956392    4.397269   -0.677598 H         1 <1>         0.217342 
     39 H           4.558254   -1.589405    0.566015 H         1 <1>         0.217328 
     40 H           1.355327   -3.757426   -2.465067 H         1 <1>         0.027427 
     41 H           0.904411   -5.195428   -1.512948 H         1 <1>         0.027427 
     42 H          -0.359456   -4.075289   -2.105224 H         1 <1>         0.027427 
     43 H           0.106798   -3.684803    1.663525 H         1 <1>         0.027427 
     44 H          -1.167795   -3.088461    0.548238 H         1 <1>         0.027427 
     45 H          -0.628768   -4.791495    0.494805 H         1 <1>         0.027427 
@<TRIPOS>BOND
     1    1    6 1    
     2    8    1 1    
     3    7    2 1    
     4    2   33 1    
     5   10    3 2    
     6   13    4 1    
     7    4   38 1    
     8   15    5 1    
     9    5   39 1    
    10    6    7 1    
    11    6   12 1    
    12    6   26 1    
    13   10    7 1    
    14    7   27 1    
    15    8    9 1    
    16   11    8 2    
    17    9   10 1    
    18    9   13 2    
    19   11   14 1    
    20   11   15 1    
    21   12   17 2    
    22   12   18 1    
    23   13   16 1    
    24   14   19 1    
    25   14   28 1    
    26   14   29 1    
    27   15   16 2    
    28   16   30 1    
    29   17   20 1    
    30   17   31 1    
    31   18   21 2    
    32   18   32 1    
    33   19   22 2    
    34   19   34 1    
    35   20   23 2    
    36   20   35 1    
    37   21   23 1    
    38   21   36 1    
    39   22   24 1    
    40   22   25 1    
    41   23   37 1    
    42   24   40 1    
    43   24   41 1    
    44   24   42 1    
    45   25   43 1    
    46   25   44 1    
    47   25   45 1    
@<TRIPOS>SUBSTRUCTURE
     1 ****        1 TEMP              0 ****  ****    0 ROOT 
@<TRIPOS>NORMAL
@<TRIPOS>FF_PBC
FORCE_FIELD_SETUP_FEATURE Force Field Setup information
v1.0  0 0.000000 0.000000 0.000000 0.000000 0.000000 0.000000 NONE 0 0 0 0 1 0 0 0 0 0 0 0 0
