@<TRIPOS>MOLECULE
MOL002516
   28    28     1     1     0
SMALL
GASTEIGER


@<TRIPOS>ATOM
      1 C           0.171257    0.003074   -0.000532 C.ar      1 <1>        -0.044363 
      2 C           0.761023   -1.312073    0.350729 C.ar      1 <1>        -0.025965 
      3 C          -1.234518    0.120104   -0.033732 C.ar      1 <1>        -0.055971 
      4 C           1.141644    1.156931   -0.306579 C.3       1 <1>        -0.020935 
      5 C          -0.029385   -2.432378    0.648092 C.ar      1 <1>         0.105659 
      6 C          -2.086204   -1.051738    0.277273 C.ar      1 <1>        -0.029141 
      7 C           0.483633    2.515143   -0.669450 C.3       1 <1>         0.009520 
      8 C          -1.514962   -2.305585    0.612170 C.ar      1 <1>         0.102451 
      9 O           0.627834   -3.630880    0.968373 O.3       1 <1>        -0.345341 
     10 C           1.510466    3.585227   -0.953108 C.2       1 <1>         0.130630 
     11 O          -2.337515   -3.400746    0.902781 O.3       1 <1>        -0.357269 
     12 C          -0.080873   -4.837380    1.288825 C.3       1 <1>         0.043136 
     13 C           1.007753    4.957373   -1.319610 C.3       1 <1>        -0.006054 
     14 O           2.707398    3.355182   -0.889983 O.2       1 <1>        -0.297693 
     15 H           1.839964   -1.418495    0.380637 H         1 <1>         0.064684 
     16 H          -1.720546    1.055141   -0.283563 H         1 <1>         0.062110 
     17 H           1.781515    0.837314   -1.144899 H         1 <1>         0.031720 
     18 H           1.779006    1.297294    0.581360 H         1 <1>         0.031720 
     19 H          -3.164037   -0.933579    0.244244 H         1 <1>         0.064412 
     20 H          -0.143650    2.858000    0.168278 H         1 <1>         0.034460 
     21 H          -0.141146    2.395233   -1.568391 H         1 <1>         0.034460 
     22 H          -3.270174   -3.224467    0.854332 H         1 <1>         0.217422 
     23 H           0.666310   -5.616836    1.497588 H         1 <1>         0.052871 
     24 H          -0.700478   -4.705453    2.188794 H         1 <1>         0.052871 
     25 H          -0.697960   -5.171190    0.440867 H         1 <1>         0.052871 
     26 H           1.851288    5.640962   -1.500259 H         1 <1>         0.030578 
     27 H           0.397770    4.901173   -2.233332 H         1 <1>         0.030578 
     28 H           0.394689    5.362748   -0.501106 H         1 <1>         0.030578 
@<TRIPOS>BOND
     1    1    2 1    
     2    1    3 2    
     3    1    4 1    
     4    2    5 2    
     5    2   15 1    
     6    3    6 1    
     7    3   16 1    
     8    4    7 1    
     9    4   17 1    
    10    4   18 1    
    11    5    8 1    
    12    5    9 1    
    13    6    8 2    
    14    6   19 1    
    15    7   10 1    
    16    7   20 1    
    17    7   21 1    
    18    8   11 1    
    19    9   12 1    
    20   10   13 1    
    21   10   14 2    
    22   11   22 1    
    23   12   23 1    
    24   12   24 1    
    25   12   25 1    
    26   13   26 1    
    27   13   27 1    
    28   13   28 1    
@<TRIPOS>SUBSTRUCTURE
     1 ****        1 TEMP              0 ****  ****    0 ROOT 
@<TRIPOS>NORMAL
@<TRIPOS>FF_PBC
FORCE_FIELD_SETUP_FEATURE Force Field Setup information
v1.0  0 0.000000 0.000000 0.000000 0.000000 0.000000 0.000000 NONE 0 0 0 0 1 0 0 0 0 0 0 0 0
