@<TRIPOS>MOLECULE
MOL001892
   36    36     1     1     0
SMALL
GASTEIGER


@<TRIPOS>ATOM
      1 C          -0.589079    0.440809    0.410690 C.ar      1 <1>         0.059304 
      2 C          -0.179880   -0.780903   -0.325571 C.ar      1 <1>         0.059304 
      3 C           0.441106    1.525962    0.646305 C.2       1 <1>         0.294569 
      4 C          -1.924434    0.558150    0.886893 C.ar      1 <1>        -0.048115 
      5 C           1.246292   -0.885784   -0.819049 C.2       1 <1>         0.294569 
      6 C          -1.130908   -1.807835   -0.561181 C.ar      1 <1>        -0.048115 
      7 O           0.362927    2.787428    0.191383 O.3       1 <1>        -0.311426 
      8 O           1.436045    1.221661    1.278418 O.2       1 <1>        -0.259203 
      9 C          -2.901504   -0.526308    0.631495 C.ar      1 <1>        -0.060980 
     10 O           2.133145   -1.823697   -0.450906 O.3       1 <1>        -0.311426 
     11 O           1.633034   -0.030758   -1.600121 O.2       1 <1>        -0.259203 
     12 C          -2.517134   -1.668259   -0.057062 C.ar      1 <1>        -0.060980 
     13 C          -0.822998    3.135983   -0.548841 C.3       1 <1>         0.057142 
     14 C           1.663563   -2.828517    0.468628 C.3       1 <1>         0.057142 
     15 C          -0.542251    4.499575   -1.227388 C.3       1 <1>        -0.031709 
     16 C           2.914398   -3.581125    0.989760 C.3       1 <1>        -0.031709 
     17 C          -1.826179    5.102845   -1.855526 C.3       1 <1>        -0.063178 
     18 C           2.530712   -4.850814    1.794777 C.3       1 <1>        -0.063178 
     19 H          -2.236010    1.431983    1.446611 H         1 <1>         0.062548 
     20 H          -0.858451   -2.696862   -1.118602 H         1 <1>         0.062548 
     21 H          -3.920198   -0.424578    0.990485 H         1 <1>         0.061779 
     22 H          -3.232911   -2.466373   -0.229847 H         1 <1>         0.061779 
     23 H          -1.075033    2.398172   -1.328933 H         1 <1>         0.056580 
     24 H          -1.677475    3.258676    0.133956 H         1 <1>         0.056580 
     25 H           1.121926   -2.402764    1.331659 H         1 <1>         0.056580 
     26 H           1.019229   -3.549970   -0.057175 H         1 <1>         0.056580 
     27 H          -0.139339    5.202692   -0.479648 H         1 <1>         0.028482 
     28 H           0.221380    4.354680   -2.010277 H         1 <1>         0.028482 
     29 H           3.542963   -3.874721    0.132673 H         1 <1>         0.028482 
     30 H           3.502621   -2.895155    1.623373 H         1 <1>         0.028482 
     31 H          -1.588601    6.051281   -2.363161 H         1 <1>         0.023048 
     32 H          -2.258641    4.408725   -2.594775 H         1 <1>         0.023048 
     33 H          -2.580049    5.306018   -1.077987 H         1 <1>         0.023048 
     34 H           3.439525   -5.338574    2.179915 H         1 <1>         0.023048 
     35 H           1.885272   -4.585602    2.646366 H         1 <1>         0.023048 
     36 H           1.995618   -5.571616    1.157355 H         1 <1>         0.023048 
@<TRIPOS>BOND
     1    1    2 1    
     2    1    3 1    
     3    1    4 2    
     4    2    5 1    
     5    2    6 2    
     6    3    7 1    
     7    3    8 2    
     8    4    9 1    
     9    4   19 1    
    10    5   10 1    
    11    5   11 2    
    12    6   12 1    
    13    6   20 1    
    14    7   13 1    
    15    9   12 2    
    16    9   21 1    
    17   10   14 1    
    18   12   22 1    
    19   13   15 1    
    20   13   23 1    
    21   13   24 1    
    22   14   16 1    
    23   14   25 1    
    24   14   26 1    
    25   15   17 1    
    26   15   27 1    
    27   15   28 1    
    28   16   18 1    
    29   16   29 1    
    30   16   30 1    
    31   17   31 1    
    32   17   32 1    
    33   17   33 1    
    34   18   34 1    
    35   18   35 1    
    36   18   36 1    
@<TRIPOS>SUBSTRUCTURE
     1 ****        1 TEMP              0 ****  ****    0 ROOT 
@<TRIPOS>NORMAL
@<TRIPOS>FF_PBC
FORCE_FIELD_SETUP_FEATURE Force Field Setup information
v1.0  0 0.000000 0.000000 0.000000 0.000000 0.000000 0.000000 NONE 0 0 0 0 1 0 0 0 0 0 0 0 0
