@<TRIPOS>MOLECULE
MOL006940
   16    15     1     1     0
SMALL
GASTEIGER


@<TRIPOS>ATOM
      1 C           1.781110    0.372845    0.479123 C.2       1 <1>         0.276530 
      2 C           0.333367   -0.036471    0.630675 C.3       1 <1>         0.091138 
      3 C          -0.495237    0.571896   -0.537921 C.3       1 <1>        -0.031325 
      4 C          -2.017845    0.299823   -0.414533 C.3       1 <1>        -0.063392 
      5 O           2.342840    1.087644    1.295539 O.2       1 <1>        -0.263439 
      6 O           2.402466   -0.095341   -0.606539 O.3       1 <1>        -0.330097 
      7 N           0.253670   -1.514885    0.690467 N.3       1 <1>        -0.319325 
      8 H          -0.030738    0.377092    1.586873 H         1 <1>         0.056203 
      9 H          -0.337738    1.663965   -0.542896 H         1 <1>         0.028246 
     10 H          -0.133637    0.172937   -1.499910 H         1 <1>         0.028246 
     11 H          -2.559403    0.839552   -1.207727 H         1 <1>         0.023037 
     12 H          -2.238823   -0.772492   -0.523139 H         1 <1>         0.023037 
     13 H          -2.393687    0.645320    0.561014 H         1 <1>         0.023037 
     14 H           3.308128    0.191809   -0.645383 H         1 <1>         0.220259 
     15 H          -0.727038   -1.849761    0.998276 H         1 <1>         0.118921 
     16 H           0.512568   -1.953935   -0.263719 H         1 <1>         0.118921 
@<TRIPOS>BOND
     1    1    2 1    
     2    1    5 2    
     3    1    6 1    
     4    2    3 1    
     5    2    7 1    
     6    2    8 1    
     7    3    4 1    
     8    3    9 1    
     9    3   10 1    
    10    4   11 1    
    11    4   12 1    
    12    4   13 1    
    13    6   14 1    
    14    7   15 1    
    15    7   16 1    
@<TRIPOS>SUBSTRUCTURE
     1 ****        1 TEMP              0 ****  ****    0 ROOT 
@<TRIPOS>NORMAL
@<TRIPOS>FF_PBC
FORCE_FIELD_SETUP_FEATURE Force Field Setup information
v1.0  0 0.000000 0.000000 0.000000 0.000000 0.000000 0.000000 NONE 0 0 0 0 1 0 0 0 0 0 0 0 0
