@<TRIPOS>MOLECULE
MOL000249
   22    22     1     1     0
SMALL
GASTEIGER


@<TRIPOS>ATOM
      1 C          -0.262478   -1.246781    0.331876 C.ar      1 <1>        -0.024850 
      2 C           0.630075   -0.060866    0.017169 C.2       1 <1>        -0.048937 
      3 C           0.394602   -2.534007    0.675887 C.ar      1 <1>        -0.054590 
      4 C          -1.695550   -1.201160    0.317583 C.ar      1 <1>        -0.054590 
      5 C           0.211776    1.170220   -0.311515 C.2       1 <1>         0.010482 
      6 C          -0.367437   -3.678705    0.979796 C.ar      1 <1>        -0.061202 
      7 C          -2.488980   -2.411765    0.639009 C.ar      1 <1>        -0.061202 
      8 C           1.125732    2.290372   -0.608679 C.2       1 <1>         0.286346 
      9 C          -1.846777   -3.615613    0.960774 C.ar      1 <1>        -0.061723 
     10 O           0.610401    3.488180   -0.928635 O.3       1 <1>        -0.315197 
     11 O           2.333101    2.110023   -0.558851 O.2       1 <1>        -0.259888 
     12 C           1.596468    4.505264   -1.198260 C.3       1 <1>         0.046178 
     13 H           1.705432   -0.233895    0.064867 H         1 <1>         0.062525 
     14 H           1.477476   -2.601176    0.695405 H         1 <1>         0.062344 
     15 H          -2.233290   -0.294378    0.075136 H         1 <1>         0.062344 
     16 H          -0.839887    1.431624   -0.382723 H         1 <1>         0.067735 
     17 H           0.128111   -4.611634    1.229149 H         1 <1>         0.061776 
     18 H          -3.573327   -2.364047    0.624675 H         1 <1>         0.061776 
     19 H          -2.429601   -4.500621    1.195745 H         1 <1>         0.061759 
     20 H           1.062932    5.434624   -1.446697 H         1 <1>         0.052972 
     21 H           2.231912    4.230538   -2.055648 H         1 <1>         0.052972 
     22 H           2.229411    4.694102   -0.316160 H         1 <1>         0.052972 
@<TRIPOS>BOND
     1    1    2 1    
     2    1    3 1    
     3    1    4 2    
     4    2    5 2    
     5    2   13 1    
     6    3    6 2    
     7    3   14 1    
     8    4    7 1    
     9    4   15 1    
    10    5    8 1    
    11    5   16 1    
    12    6    9 1    
    13    6   17 1    
    14    7    9 2    
    15    7   18 1    
    16    8   10 1    
    17    8   11 2    
    18    9   19 1    
    19   10   12 1    
    20   12   20 1    
    21   12   21 1    
    22   12   22 1    
@<TRIPOS>SUBSTRUCTURE
     1 ****        1 TEMP              0 ****  ****    0 ROOT 
@<TRIPOS>NORMAL
@<TRIPOS>FF_PBC
FORCE_FIELD_SETUP_FEATURE Force Field Setup information
v1.0  0 0.000000 0.000000 0.000000 0.000000 0.000000 0.000000 NONE 0 0 0 0 1 0 0 0 0 0 0 0 0
