@<TRIPOS>MOLECULE
MOL002917
   38    40     1     1     0
SMALL
GASTEIGER


@<TRIPOS>ATOM
      1 O           0.128352   -0.032562    0.038235 O.3       1 <1>        -0.304956 
      2 O          -2.686673   -0.489807    0.577607 O.3       1 <1>        -0.342923 
      3 O          -4.516004    1.810767    0.430833 O.3       1 <1>        -0.345170 
      4 O          -0.740297    4.756865   -0.613634 O.3       1 <1>        -0.358953 
      5 O           1.662886    3.595044   -0.881713 O.2       1 <1>        -0.287016 
      6 O           0.628653   -2.441788   -1.330503 O.3       1 <1>        -0.359077 
      7 O           4.003236    0.171851    1.120626 O.3       1 <1>        -0.359077 
      8 C          -0.327270    2.387956   -0.310311 C.ar      1 <1>         0.084493 
      9 C          -0.797023    1.019513    0.000453 C.ar      1 <1>         0.128734 
     10 C           1.442834    0.120025   -0.196433 C.2       1 <1>         0.098912 
     11 C          -2.192303    0.787857    0.266762 C.ar      1 <1>         0.137043 
     12 C           1.146542    2.527544   -0.593323 C.2       1 <1>         0.193597 
     13 C          -1.212629    3.473001   -0.334061 C.ar      1 <1>         0.088490 
     14 C           2.330642   -1.102557   -0.098861 C.ar      1 <1>         0.064909 
     15 C           1.964643    1.313842   -0.511999 C.2       1 <1>         0.017089 
     16 C          -3.134708    1.944732    0.214768 C.ar      1 <1>         0.110696 
     17 C          -2.649164    3.230024   -0.064299 C.ar      1 <1>         0.001492 
     18 C           1.868791   -2.385328   -0.688881 C.ar      1 <1>         0.084666 
     19 C           3.584536   -1.033289    0.550273 C.ar      1 <1>         0.084666 
     20 C           2.691676   -3.532319   -0.600348 C.ar      1 <1>        -0.031113 
     21 C           4.442912   -2.243073    0.629223 C.ar      1 <1>        -0.031113 
     22 C           4.008645   -3.455840    0.072471 C.ar      1 <1>        -0.056859 
     23 C          -2.021230   -1.700630    0.189664 C.3       1 <1>         0.043243 
     24 C          -5.174277    0.533787    0.463597 C.3       1 <1>         0.043138 
     25 H           3.025560    1.427136   -0.728969 H         1 <1>         0.068221 
     26 H          -3.351434    4.055710   -0.085941 H         1 <1>         0.067015 
     27 H           2.369905   -4.477343   -1.024819 H         1 <1>         0.064342 
     28 H           5.409509   -2.195411    1.118778 H         1 <1>         0.064342 
     29 H           4.635558   -4.339874    0.132505 H         1 <1>         0.061916 
     30 H          -1.406976    5.433587   -0.585772 H         1 <1>         0.217342 
     31 H          -2.717173   -2.531224    0.375861 H         1 <1>         0.052872 
     32 H          -1.781325   -1.678446   -0.883596 H         1 <1>         0.052872 
     33 H          -1.116744   -1.884863    0.786936 H         1 <1>         0.052872 
     34 H          -6.257148    0.720869    0.510644 H         1 <1>         0.052871 
     35 H          -4.892164   -0.040017    1.359361 H         1 <1>         0.052871 
     36 H          -4.961021   -0.045830   -0.448799 H         1 <1>         0.052871 
     37 H           0.418969   -3.287519   -1.710671 H         1 <1>         0.217340 
     38 H           4.855361    0.124625    1.538875 H         1 <1>         0.217340 
@<TRIPOS>BOND
     1    1    9 1    
     2   10    1 1    
     3   11    2 1    
     4    2   23 1    
     5   16    3 1    
     6    3   24 1    
     7   13    4 1    
     8    4   30 1    
     9   12    5 2    
    10   18    6 1    
    11    6   37 1    
    12   19    7 1    
    13    7   38 1    
    14    9    8 1    
    15   12    8 1    
    16    8   13 2    
    17    9   11 2    
    18   14   10 1    
    19   10   15 2    
    20   11   16 1    
    21   15   12 1    
    22   13   17 1    
    23   14   18 1    
    24   14   19 2    
    25   15   25 1    
    26   16   17 2    
    27   17   26 1    
    28   18   20 2    
    29   19   21 1    
    30   20   22 1    
    31   20   27 1    
    32   21   22 2    
    33   21   28 1    
    34   22   29 1    
    35   23   31 1    
    36   23   32 1    
    37   23   33 1    
    38   24   34 1    
    39   24   35 1    
    40   24   36 1    
@<TRIPOS>SUBSTRUCTURE
     1 ****        1 TEMP              0 ****  ****    0 ROOT 
@<TRIPOS>NORMAL
@<TRIPOS>FF_PBC
FORCE_FIELD_SETUP_FEATURE Force Field Setup information
v1.0  0 0.000000 0.000000 0.000000 0.000000 0.000000 0.000000 NONE 0 0 0 0 1 0 0 0 0 0 0 0 0
