@<TRIPOS>MOLECULE
MOL004719
   99   103     1     1     0
SMALL
GASTEIGER


@<TRIPOS>ATOM
      1 O          -7.370614   -2.429579   -1.380795 O.3       1 <1>        -0.340523 
      2 C          -6.394398   -1.620297   -2.060226 C.3       1 <1>         0.188205 
      3 C          -6.572487   -1.767726   -3.596735 C.3       1 <1>         0.134121 
      4 C          -6.398391   -3.254305   -4.007196 C.3       1 <1>         0.114061 
      5 C          -7.389273   -4.134732   -3.199519 C.3       1 <1>         0.111896 
      6 C          -7.278813   -3.840002   -1.674635 C.3       1 <1>         0.113005 
      7 O          -5.113532   -1.981051   -1.503251 O.3       1 <1>        -0.345420 
      8 C          -3.942611   -1.292983   -1.998838 C.3       1 <1>         0.062091 
      9 C          -2.748318   -1.921257   -1.232762 C.3       1 <1>        -0.022865 
     10 C          -2.881212   -1.649515    0.294949 C.3       1 <1>        -0.029317 
     11 C          -2.871132   -0.121950    0.618505 C.3       1 <1>        -0.022289 
     12 C          -4.011640    0.542185   -0.226148 C.3       1 <1>        -0.044474 
     13 C          -3.951417    0.238189   -1.749686 C.3       1 <1>        -0.025966 
     14 C          -1.789386   -2.396849    1.104374 C.3       1 <1>        -0.031055 
     15 C          -0.447729   -1.733626    0.966486 C.2       1 <1>        -0.083920 
     16 C          -0.284086   -0.453449    0.604624 C.2       1 <1>        -0.066224 
     17 C          -1.447819    0.483155    0.317280 C.3       1 <1>        -0.013941 
     18 C          -1.222705    1.908269    0.919298 C.3       1 <1>        -0.045475 
     19 C           0.203183    2.462598    0.647431 C.3       1 <1>        -0.046253 
     20 C           1.294154    1.480005    1.173650 C.3       1 <1>        -0.022188 
     21 C           2.759515    1.828196    0.757776 C.3       1 <1>        -0.029061 
     22 C           3.486877    0.445319    0.738986 C.3       1 <1>        -0.048617 
     23 C           2.378571   -0.645852    0.724352 C.3       1 <1>        -0.045710 
     24 C           1.092046    0.149916    0.402678 C.3       1 <1>        -0.013943 
     25 O          -7.877687   -1.255459   -3.943444 O.3       1 <1>        -0.384104 
     26 O          -5.020912   -3.646482   -3.841143 O.3       1 <1>        -0.386401 
     27 O          -8.714229   -3.863600   -3.704919 O.3       1 <1>        -0.386488 
     28 C          -6.074150   -4.552954   -0.999856 C.3       1 <1>         0.073015 
     29 O          -6.303273   -5.976191   -1.035181 O.3       1 <1>        -0.392366 
     30 C          -3.235095    0.073209    2.126822 C.3       1 <1>        -0.058754 
     31 C           1.187863    1.266980    2.717329 C.3       1 <1>        -0.058747 
     32 C           3.564174    2.879218    1.587816 C.3       1 <1>        -0.022385 
     33 C           4.945373    2.964277    0.972016 C.2       1 <1>        -0.084547 
     34 C           6.055564    2.536554    1.589057 C.2       1 <1>        -0.084339 
     35 C           7.429552    2.613030    0.958495 C.3       1 <1>        -0.020812 
     36 C           7.753970    1.247861    0.268283 C.3       1 <1>        -0.040461 
     37 C           9.049617    1.305691   -0.590668 C.3       1 <1>        -0.062133 
     38 C           2.958147    4.307944    1.594904 C.3       1 <1>        -0.058684 
     39 C           8.472753    3.081754    2.015442 C.3       1 <1>        -0.049381 
     40 C           8.121434    4.482993    2.585363 C.3       1 <1>        -0.064738 
     41 C           7.827240    0.047563    1.254324 C.3       1 <1>        -0.062133 
     42 H           5.018211    3.390829   -0.029094 H         1 <1>         0.057182 
     43 H           5.980016    2.104801    2.587234 H         1 <1>         0.057190 
     44 H          -6.657174   -0.591447   -1.774729 H         1 <1>         0.093749 
     45 H          -5.828119   -1.151974   -4.125772 H         1 <1>         0.067095 
     46 H          -6.645831   -3.346734   -5.079531 H         1 <1>         0.064758 
     47 H          -7.164155   -5.198357   -3.390893 H         1 <1>         0.064673 
     48 H          -8.164470   -4.274734   -1.183925 H         1 <1>         0.064668 
     49 H          -3.790069   -1.500578   -3.070578 H         1 <1>         0.059686 
     50 H          -2.767653   -3.007978   -1.418717 H         1 <1>         0.029306 
     51 H          -1.791362   -1.541946   -1.621229 H         1 <1>         0.029306 
     52 H          -3.846571   -2.086352    0.604552 H         1 <1>         0.030996 
     53 H          -4.018274    1.633120   -0.083469 H         1 <1>         0.027158 
     54 H          -4.981546    0.164503    0.137414 H         1 <1>         0.027158 
     55 H          -4.808216    0.704850   -2.258675 H         1 <1>         0.029029 
     56 H          -3.059928    0.684280   -2.212673 H         1 <1>         0.029029 
     57 H          -2.040490   -2.449617    2.174806 H         1 <1>         0.031026 
     58 H          -1.721225   -3.435239    0.740962 H         1 <1>         0.031026 
     59 H           0.407046   -2.375744    1.171840 H         1 <1>         0.057189 
     60 H          -1.348197    0.631366   -0.764251 H         1 <1>         0.035106 
     61 H          -1.950513    2.617724    0.494329 H         1 <1>         0.027132 
     62 H          -1.364586    1.917304    2.007219 H         1 <1>         0.027132 
     63 H           0.316966    2.620104   -0.437503 H         1 <1>         0.027096 
     64 H           0.288120    3.446744    1.126974 H         1 <1>         0.027096 
     65 H           2.718341    2.201021   -0.280856 H         1 <1>         0.031176 
     66 H           4.134008    0.365997   -0.151251 H         1 <1>         0.026846 
     67 H           4.126795    0.303309    1.625467 H         1 <1>         0.026846 
     68 H           2.300844   -1.112856    1.718895 H         1 <1>         0.027124 
     69 H           2.575976   -1.442216   -0.012822 H         1 <1>         0.027124 
     70 H           1.142811    0.347930   -0.682784 H         1 <1>         0.035106 
     71 H          -8.092280   -1.337074   -4.867198 H         1 <1>         0.210110 
     72 H          -4.842917   -4.539950   -4.119682 H         1 <1>         0.210005 
     73 H          -9.398625   -4.376523   -3.286537 H         1 <1>         0.210004 
     74 H          -6.004735   -4.200648    0.043591 H         1 <1>         0.058370 
     75 H          -5.121900   -4.336037   -1.503195 H         1 <1>         0.058370 
     76 H          -5.614518   -6.477648   -0.607619 H         1 <1>         0.209508 
     77 H          -2.390096   -0.184900    2.782011 H         1 <1>         0.023534 
     78 H          -3.523460    1.114435    2.334985 H         1 <1>         0.023534 
     79 H          -4.093551   -0.551782    2.416360 H         1 <1>         0.023534 
     80 H           2.070583    0.764018    3.135448 H         1 <1>         0.023534 
     81 H           1.091403    2.237464    3.225155 H         1 <1>         0.023534 
     82 H           0.318024    0.650523    2.984575 H         1 <1>         0.023534 
     83 H           3.643516    2.549882    2.636129 H         1 <1>         0.034310 
     84 H           7.415728    3.380606    0.165931 H         1 <1>         0.034534 
     85 H           6.919948    1.045372   -0.428850 H         1 <1>         0.030110 
     86 H           9.146337    0.387483   -1.191370 H         1 <1>         0.023251 
     87 H           9.023107    2.163051   -1.280901 H         1 <1>         0.023251 
     88 H           9.945460    1.388848    0.041522 H         1 <1>         0.023251 
     89 H           3.697284    5.023941    1.988221 H         1 <1>         0.023544 
     90 H           2.076346    4.363803    2.247641 H         1 <1>         0.023544 
     91 H           2.678933    4.619589    0.576804 H         1 <1>         0.023544 
     92 H           8.520713    2.368561    2.853137 H         1 <1>         0.026833 
     93 H           9.473510    3.147082    1.560827 H         1 <1>         0.026833 
     94 H           8.889706    4.799936    3.308558 H         1 <1>         0.022995 
     95 H           8.078344    5.228062    1.775661 H         1 <1>         0.022995 
     96 H           7.148928    4.468572    3.100996 H         1 <1>         0.022995 
     97 H           7.965341   -0.889863    0.693130 H         1 <1>         0.023251 
     98 H           6.901496   -0.047396    1.840405 H         1 <1>         0.023251 
     99 H           8.675186    0.154533    1.946068 H         1 <1>         0.023251 
@<TRIPOS>BOND
     1    1    2 1    
     2    1    6 1    
     3    2    3 1    
     4    2    7 1    
     5    2   44 1    
     6    3    4 1    
     7    3   25 1    
     8    3   45 1    
     9    4    5 1    
    10    4   26 1    
    11    4   46 1    
    12    5    6 1    
    13    5   27 1    
    14    5   47 1    
    15    6   28 1    
    16    6   48 1    
    17    7    8 1    
    18    8    9 1    
    19    8   13 1    
    20    8   49 1    
    21    9   10 1    
    22    9   50 1    
    23    9   51 1    
    24   10   11 1    
    25   10   14 1    
    26   10   52 1    
    27   11   12 1    
    28   11   17 1    
    29   11   30 1    
    30   12   13 1    
    31   12   53 1    
    32   12   54 1    
    33   13   55 1    
    34   13   56 1    
    35   14   15 1    
    36   14   57 1    
    37   14   58 1    
    38   15   16 2    
    39   15   59 1    
    40   16   17 1    
    41   16   24 1    
    42   17   18 1    
    43   17   60 1    
    44   18   19 1    
    45   18   61 1    
    46   18   62 1    
    47   19   20 1    
    48   19   63 1    
    49   19   64 1    
    50   20   21 1    
    51   20   24 1    
    52   20   31 1    
    53   21   22 1    
    54   21   32 1    
    55   21   65 1    
    56   22   23 1    
    57   22   66 1    
    58   22   67 1    
    59   23   24 1    
    60   23   68 1    
    61   23   69 1    
    62   24   70 1    
    63   25   71 1    
    64   26   72 1    
    65   27   73 1    
    66   28   29 1    
    67   28   74 1    
    68   28   75 1    
    69   29   76 1    
    70   30   77 1    
    71   30   78 1    
    72   30   79 1    
    73   31   80 1    
    74   31   81 1    
    75   31   82 1    
    76   32   33 1    
    77   32   38 1    
    78   32   83 1    
    79   33   34 2    
    80   33   42 1    
    81   34   35 1    
    82   34   43 1    
    83   35   36 1    
    84   35   39 1    
    85   35   84 1    
    86   36   37 1    
    87   36   41 1    
    88   36   85 1    
    89   37   86 1    
    90   37   87 1    
    91   37   88 1    
    92   38   89 1    
    93   38   90 1    
    94   38   91 1    
    95   39   40 1    
    96   39   92 1    
    97   39   93 1    
    98   40   94 1    
    99   40   95 1    
   100   40   96 1    
   101   41   97 1    
   102   41   98 1    
   103   41   99 1    
@<TRIPOS>SUBSTRUCTURE
     1 ****        1 TEMP              0 ****  ****    0 ROOT 
@<TRIPOS>NORMAL
@<TRIPOS>FF_PBC
FORCE_FIELD_SETUP_FEATURE Force Field Setup information
v1.0  0 0.000000 0.000000 0.000000 0.000000 0.000000 0.000000 NONE 0 0 0 0 1 0 0 0 0 0 0 0 0
