@<TRIPOS>MOLECULE
MOL004601
   33    32     1     1     0
SMALL
GASTEIGER


@<TRIPOS>ATOM
      1 C           2.203396   -0.004998    0.238632 C.3       1 <1>         0.063087 
      2 C           0.881059   -0.770353    0.567712 C.3       1 <1>        -0.024263 
      3 C           2.176432    1.437735    0.840303 C.3       1 <1>        -0.027106 
      4 C           2.471315    0.013498   -1.295650 C.3       1 <1>        -0.036089 
      5 O           3.218505   -0.803691    0.876728 O.3       1 <1>        -0.388856 
      6 C          -0.433868   -0.150021    0.011509 C.3       1 <1>        -0.050237 
      7 C           3.506888    2.235975    0.749591 C.3       1 <1>        -0.062686 
      8 C          -1.658309   -1.054238    0.332247 C.3       1 <1>        -0.050620 
      9 C          -3.031410   -0.407295   -0.024899 C.3       1 <1>        -0.046720 
     10 C          -3.156692   -0.073806   -1.538179 C.3       1 <1>        -0.062665 
     11 C          -4.185873   -1.359039    0.398773 C.3       1 <1>        -0.062665 
     12 H           0.794049   -0.848526    1.663733 H         1 <1>         0.029273 
     13 H           0.973518   -1.796631    0.176369 H         1 <1>         0.029273 
     14 H           1.897512    1.370956    1.904544 H         1 <1>         0.029007 
     15 H           1.409834    2.034298    0.322026 H         1 <1>         0.029007 
     16 H           3.499528    0.335282   -1.514251 H         1 <1>         0.025721 
     17 H           2.345953   -0.995891   -1.715627 H         1 <1>         0.025721 
     18 H           1.786375    0.699399   -1.814504 H         1 <1>         0.025721 
     19 H           4.107816   -0.512664    0.712966 H         1 <1>         0.210146 
     20 H          -0.347112   -0.037019   -1.078300 H         1 <1>         0.026625 
     21 H          -0.609667    0.839342    0.460550 H         1 <1>         0.026625 
     22 H           3.359145    3.242045    1.174223 H         1 <1>         0.023065 
     23 H           3.833459    2.357762   -0.293307 H         1 <1>         0.023065 
     24 H           4.309971    1.749902    1.322677 H         1 <1>         0.023065 
     25 H          -1.653453   -1.271548    1.413201 H         1 <1>         0.026778 
     26 H          -1.553105   -2.010882   -0.205101 H         1 <1>         0.026778 
     27 H          -3.140817    0.531479    0.546824 H         1 <1>         0.029548 
     28 H          -4.171604    0.286194   -1.767830 H         1 <1>         0.023233 
     29 H          -2.452884    0.718194   -1.833515 H         1 <1>         0.023233 
     30 H          -2.959229   -0.970279   -2.145593 H         1 <1>         0.023233 
     31 H          -5.164677   -0.896290    0.197583 H         1 <1>         0.023233 
     32 H          -4.129952   -1.582884    1.475497 H         1 <1>         0.023233 
     33 H          -4.126104   -2.306104   -0.159337 H         1 <1>         0.023233 
@<TRIPOS>BOND
     1    1    2 1    
     2    1    3 1    
     3    1    4 1    
     4    1    5 1    
     5    2    6 1    
     6    2   12 1    
     7    2   13 1    
     8    3    7 1    
     9    3   14 1    
    10    3   15 1    
    11    4   16 1    
    12    4   17 1    
    13    4   18 1    
    14    5   19 1    
    15    6    8 1    
    16    6   20 1    
    17    6   21 1    
    18    7   22 1    
    19    7   23 1    
    20    7   24 1    
    21    8    9 1    
    22    8   25 1    
    23    8   26 1    
    24    9   10 1    
    25    9   11 1    
    26    9   27 1    
    27   10   28 1    
    28   10   29 1    
    29   10   30 1    
    30   11   31 1    
    31   11   32 1    
    32   11   33 1    
@<TRIPOS>SUBSTRUCTURE
     1 ****        1 TEMP              0 ****  ****    0 ROOT 
@<TRIPOS>NORMAL
@<TRIPOS>FF_PBC
FORCE_FIELD_SETUP_FEATURE Force Field Setup information
v1.0  0 0.000000 0.000000 0.000000 0.000000 0.000000 0.000000 NONE 0 0 0 0 1 0 0 0 0 0 0 0 0
