@<TRIPOS>MOLECULE
MOL002244
   50    53     1     1     0
SMALL
GASTEIGER


@<TRIPOS>ATOM
      1 C          -2.219303    1.868935   -1.059740 C.ar      1 <1>        -0.047298 
      2 C          -1.777733    0.554127   -0.533458 C.ar      1 <1>        -0.027912 
      3 C          -0.519125    0.411329    0.109768 C.ar      1 <1>         0.091201 
      4 C           0.371473    1.597081    0.232153 C.ar      1 <1>         0.063194 
      5 C          -0.019012    2.838297   -0.366097 C.ar      1 <1>         0.035817 
      6 C          -1.354979    2.966812   -0.994016 C.ar      1 <1>        -0.047151 
      7 C           1.689410    1.580572    0.975940 C.2       1 <1>         0.199447 
      8 C           2.754589    2.579479    0.584776 C.ar      1 <1>         0.062807 
      9 C           2.381600    3.789672   -0.030811 C.ar      1 <1>         0.035560 
     10 C           0.922486    4.019359   -0.361345 C.2       1 <1>         0.194675 
     11 C           4.183572    2.283914    0.845945 C.ar      1 <1>         0.084072 
     12 C           5.165853    3.262510    0.523501 C.ar      1 <1>        -0.031198 
     13 C           4.759975    4.557580   -0.071856 C.ar      1 <1>        -0.058617 
     14 C           3.405178    4.814785   -0.350056 C.ar      1 <1>        -0.050071 
     15 O          -0.173414   -0.838687    0.638043 O.3       1 <1>        -0.311813 
     16 O           1.897808    0.802560    1.892509 O.2       1 <1>        -0.286435 
     17 O           0.505887    5.130724   -0.651803 O.2       1 <1>        -0.286609 
     18 C           1.079355   -1.505925    0.387949 C.3       1 <1>         0.193669 
     19 O           1.058542   -2.409029   -0.739826 O.3       1 <1>        -0.340168 
     20 C           2.325337   -3.100348   -0.916760 C.3       1 <1>         0.113017 
     21 C           2.677515   -3.936850    0.346176 C.3       1 <1>         0.111896 
     22 C           2.670697   -3.041509    1.612051 C.3       1 <1>         0.114074 
     23 C           1.314349   -2.305387    1.696343 C.3       1 <1>         0.134509 
     24 C           2.292252   -4.009984   -2.175126 C.3       1 <1>         0.073015 
     25 O           2.862127   -3.889104    2.760809 O.3       1 <1>        -0.386401 
     26 O           3.982396   -4.534178    0.196737 O.3       1 <1>        -0.386488 
     27 O           1.246007   -1.478041    2.876306 O.3       1 <1>        -0.384091 
     28 O           4.543541    1.046831    1.381902 O.3       1 <1>        -0.359102 
     29 C          -3.607847    2.067646   -1.665683 C.3       1 <1>        -0.039609 
     30 O           2.243423   -3.196376   -3.364597 O.3       1 <1>        -0.392366 
     31 H          -2.421957   -0.312518   -0.628664 H         1 <1>         0.064614 
     32 H          -1.670141    3.922080   -1.393713 H         1 <1>         0.062744 
     33 H           6.221413    3.073000    0.707359 H         1 <1>         0.064341 
     34 H           5.514869    5.304166   -0.293965 H         1 <1>         0.061857 
     35 H           3.113705    5.762141   -0.793711 H         1 <1>         0.062482 
     36 H           1.897201   -0.792775    0.210133 H         1 <1>         0.094160 
     37 H           3.144347   -2.382612   -1.091822 H         1 <1>         0.064668 
     38 H           1.914368   -4.728383    0.466499 H         1 <1>         0.064673 
     39 H           3.498172   -2.311940    1.545056 H         1 <1>         0.064758 
     40 H           0.514600   -3.058618    1.784174 H         1 <1>         0.067108 
     41 H           3.207261   -4.627529   -2.209503 H         1 <1>         0.058370 
     42 H           1.418415   -4.681197   -2.124495 H         1 <1>         0.058370 
     43 H           2.812672   -3.396690    3.575171 H         1 <1>         0.210005 
     44 H           4.232608   -5.032616    0.971466 H         1 <1>         0.210004 
     45 H           1.783702   -0.692644    2.804519 H         1 <1>         0.210111 
     46 H           5.484684    0.921392    1.420869 H         1 <1>         0.217340 
     47 H          -4.149993    1.114907   -1.737709 H         1 <1>         0.027755 
     48 H          -4.171395    2.752928   -1.014292 H         1 <1>         0.027755 
     49 H          -3.524446    2.515065   -2.669094 H         1 <1>         0.027755 
     50 H           2.238255   -3.704853   -4.170811 H         1 <1>         0.209508 
@<TRIPOS>BOND
     1    1    2 1    
     2    1    6 2    
     3    1   29 1    
     4    2    3 2    
     5    2   31 1    
     6    3    4 1    
     7    3   15 1    
     8    4    5 2    
     9    4    7 1    
    10    5    6 1    
    11    5   10 1    
    12    6   32 1    
    13    7    8 1    
    14    7   16 2    
    15    8    9 2    
    16    8   11 1    
    17    9   10 1    
    18    9   14 1    
    19   10   17 2    
    20   11   12 2    
    21   11   28 1    
    22   12   13 1    
    23   12   33 1    
    24   13   14 2    
    25   13   34 1    
    26   14   35 1    
    27   15   18 1    
    28   18   19 1    
    29   18   23 1    
    30   18   36 1    
    31   19   20 1    
    32   20   21 1    
    33   20   24 1    
    34   20   37 1    
    35   21   22 1    
    36   21   26 1    
    37   21   38 1    
    38   22   23 1    
    39   22   25 1    
    40   22   39 1    
    41   23   27 1    
    42   23   40 1    
    43   24   30 1    
    44   24   41 1    
    45   24   42 1    
    46   25   43 1    
    47   26   44 1    
    48   27   45 1    
    49   28   46 1    
    50   29   47 1    
    51   29   48 1    
    52   29   49 1    
    53   30   50 1    
@<TRIPOS>SUBSTRUCTURE
     1 ****        1 TEMP              0 ****  ****    0 ROOT 
@<TRIPOS>NORMAL
@<TRIPOS>FF_PBC
FORCE_FIELD_SETUP_FEATURE Force Field Setup information
v1.0  0 0.000000 0.000000 0.000000 0.000000 0.000000 0.000000 NONE 0 0 0 0 1 0 0 0 0 0 0 0 0
