@<TRIPOS>MOLECULE
MOL005813
   39    39     1     1     0
SMALL
GASTEIGER


@<TRIPOS>ATOM
      1 C           0.769473    2.107095    0.739321 C.2       1 <1>        -0.076501 
      2 C           1.847056    1.328850    0.990648 C.2       1 <1>        -0.084727 
      3 C           2.033439   -0.130391    1.393120 C.3       1 <1>        -0.030839 
      4 C           0.898447   -0.823208    2.196000 C.3       1 <1>        -0.028562 
      5 C           0.486369   -2.202302    1.676010 C.2       1 <1>        -0.076223 
      6 C          -0.066645   -2.535181    0.487116 C.2       1 <1>        -0.084456 
      7 C          -0.508977   -1.792889   -0.771373 C.3       1 <1>        -0.027992 
      8 C          -0.435180   -0.248169   -0.893232 C.3       1 <1>        -0.016697 
      9 C          -1.327740    0.430189    0.178489 C.3       1 <1>        -0.042567 
     10 C          -0.724165    1.759546    0.740972 C.3       1 <1>        -0.031457 
     11 C           0.004017    1.270652   -2.828324 C.2       1 <1>        -0.099437 
     12 C          -0.738915    0.296902   -2.283240 C.2       1 <1>        -0.076311 
     13 C          -1.913700   -0.301053   -3.031830 C.3       1 <1>        -0.043768 
     14 C           0.756114   -3.324415    2.670505 C.3       1 <1>        -0.043778 
     15 C           1.030692    3.573115    0.409728 C.3       1 <1>        -0.043787 
     16 H           2.821467    1.810938    0.886366 H         1 <1>         0.057163 
     17 H           2.939291   -0.151799    2.027223 H         1 <1>         0.031044 
     18 H           2.315317   -0.738064    0.520066 H         1 <1>         0.031044 
     19 H           0.066116   -0.145831    2.377599 H         1 <1>         0.031285 
     20 H           1.279198   -0.956901    3.223574 H         1 <1>         0.031285 
     21 H          -0.269958   -3.598362    0.340189 H         1 <1>         0.057172 
     22 H          -1.562420   -2.072301   -0.936846 H         1 <1>         0.031313 
     23 H           0.082114   -2.211908   -1.603336 H         1 <1>         0.031313 
     24 H           0.614953   -0.025578   -0.727150 H         1 <1>         0.034848 
     25 H          -1.561865   -0.281208    0.980059 H         1 <1>         0.027408 
     26 H          -2.322219    0.626219   -0.256164 H         1 <1>         0.027408 
     27 H          -1.199721    2.524204    0.104152 H         1 <1>         0.031008 
     28 H          -1.110141    1.939853    1.756833 H         1 <1>         0.031008 
     29 H           0.850701    1.713751   -2.302954 H         1 <1>         0.053440 
     30 H          -0.203578    1.663274   -3.823513 H         1 <1>         0.053440 
     31 H          -2.138665    0.254691   -3.954565 H         1 <1>         0.027436 
     32 H          -1.687988   -1.338737   -3.316455 H         1 <1>         0.027436 
     33 H          -2.821516   -0.293038   -2.412629 H         1 <1>         0.027436 
     34 H           0.155449   -3.149322    3.576241 H         1 <1>         0.027436 
     35 H           0.521332   -4.339108    2.314569 H         1 <1>         0.027436 
     36 H           1.821689   -3.319539    2.946932 H         1 <1>         0.027436 
     37 H           2.076640    3.900792    0.505637 H         1 <1>         0.027436 
     38 H           0.716714    3.782526   -0.624136 H         1 <1>         0.027436 
     39 H           0.434523    4.201408    1.089406 H         1 <1>         0.027436 
@<TRIPOS>BOND
     1    1    2 2    
     2    1   10 1    
     3    1   15 1    
     4    2    3 1    
     5    2   16 1    
     6    3    4 1    
     7    3   17 1    
     8    3   18 1    
     9    4    5 1    
    10    4   19 1    
    11    4   20 1    
    12    5    6 2    
    13    5   14 1    
    14    6    7 1    
    15    6   21 1    
    16    7    8 1    
    17    7   22 1    
    18    7   23 1    
    19    8    9 1    
    20    8   12 1    
    21    8   24 1    
    22    9   10 1    
    23    9   25 1    
    24    9   26 1    
    25   10   27 1    
    26   10   28 1    
    27   12   11 2    
    28   11   29 1    
    29   11   30 1    
    30   12   13 1    
    31   13   31 1    
    32   13   32 1    
    33   13   33 1    
    34   14   34 1    
    35   14   35 1    
    36   14   36 1    
    37   15   37 1    
    38   15   38 1    
    39   15   39 1    
@<TRIPOS>SUBSTRUCTURE
     1 ****        1 TEMP              0 ****  ****    0 ROOT 
@<TRIPOS>NORMAL
@<TRIPOS>FF_PBC
FORCE_FIELD_SETUP_FEATURE Force Field Setup information
v1.0  0 0.000000 0.000000 0.000000 0.000000 0.000000 0.000000 NONE 0 0 0 0 1 0 0 0 0 0 0 0 0
