@<TRIPOS>MOLECULE
MOL004586
   26    25     1     1     0
SMALL
GASTEIGER


@<TRIPOS>ATOM
      1 O           0.919818   -5.507256    0.000512 O.3       1 <1>        -0.390992 
      2 C           0.268572    2.058356    0.000034 C.3       1 <1>        -0.049856 
      3 C           0.377273    3.608237   -0.000009 C.3       1 <1>        -0.055633 
      4 C          -1.213820    1.594089   -0.000075 C.3       1 <1>        -0.034477 
      5 C           1.858289    4.069221    0.000110 C.3       1 <1>        -0.065267 
      6 C          -1.456738    0.099532   -0.000052 C.2       1 <1>        -0.084015 
      7 C          -0.514183   -0.854216   -0.000006 C.2       1 <1>        -0.065912 
      8 C          -0.846364   -2.295391    0.000003 C.2       1 <1>        -0.063846 
      9 C           0.081943   -3.261281   -0.000151 C.2       1 <1>        -0.058954 
     10 C          -0.286224   -4.722620   -0.000155 C.3       1 <1>         0.062674 
     11 H          -2.503566   -0.209547   -0.000087 H         1 <1>         0.057203 
     12 H           0.543080   -0.595595    0.000028 H         1 <1>         0.061439 
     13 H          -1.896525   -2.590454    0.000122 H         1 <1>         0.061509 
     14 H           1.141237   -3.001545   -0.000295 H         1 <1>         0.059460 
     15 H           0.754950   -6.445501    0.000492 H         1 <1>         0.209823 
     16 H           0.775528    1.666693    0.897320 H         1 <1>         0.026813 
     17 H           0.775675    1.666645   -0.897153 H         1 <1>         0.026813 
     18 H          -0.125342    4.015057   -0.893465 H         1 <1>         0.026274 
     19 H          -0.125503    4.015119    0.893330 H         1 <1>         0.026274 
     20 H          -1.711362    2.008845   -0.891606 H         1 <1>         0.030741 
     21 H          -1.711503    2.008895    0.891361 H         1 <1>         0.030741 
     22 H           1.913076    5.169417    0.000069 H         1 <1>         0.022978 
     23 H           2.377939    3.693066    0.895154 H         1 <1>         0.022978 
     24 H           2.378105    3.692992   -0.894809 H         1 <1>         0.022978 
     25 H          -0.886728   -4.941502   -0.899263 H         1 <1>         0.060127 
     26 H          -0.887628   -4.941356    0.898389 H         1 <1>         0.060127 
@<TRIPOS>BOND
     1   10    1 1    
     2    1   15 1    
     3    2    3 1    
     4    4    2 1    
     5    2   16 1    
     6    2   17 1    
     7    3    5 1    
     8    3   18 1    
     9    3   19 1    
    10    6    4 1    
    11    4   20 1    
    12    4   21 1    
    13    5   22 1    
    14    5   23 1    
    15    5   24 1    
    16    7    6 2    
    17    6   11 1    
    18    8    7 1    
    19    7   12 1    
    20    9    8 2    
    21    8   13 1    
    22    9   10 1    
    23    9   14 1    
    24   10   25 1    
    25   10   26 1    
@<TRIPOS>SUBSTRUCTURE
     1 ****        2 TEMP              0 ****  ****    0 ROOT 
@<TRIPOS>NORMAL
@<TRIPOS>FF_PBC
FORCE_FIELD_SETUP_FEATURE Force Field Setup information
v1.0  0 0.000000 0.000000 0.000000 0.000000 0.000000 0.000000 NONE 0 0 0 0 1 0 0 0 0 0 0 0 0
