@<TRIPOS>MOLECULE
MOL004879
   50    52     1     1     0
SMALL
GASTEIGER


@<TRIPOS>ATOM
      1 C          -2.742081    2.113574   -0.568916 C.2       1 <1>         0.299461 
      2 C          -1.798915    2.475970    0.520422 C.2       1 <1>         0.057145 
      3 C          -0.823593    1.633261    0.874306 C.2       1 <1>        -0.036075 
      4 C          -0.671106    0.339616    0.119541 C.ar      1 <1>         0.036713 
      5 C          -1.691836    0.014468   -0.897312 C.ar      1 <1>         0.098534 
      6 O          -2.716371    0.920930   -1.181106 O.3       1 <1>        -0.273171 
      7 C          -1.612308   -1.197561   -1.592053 C.ar      1 <1>        -0.000017 
      8 C          -0.513758   -2.159030   -1.312922 C.ar      1 <1>         0.084220 
      9 C           0.483054   -1.829561   -0.377327 C.ar      1 <1>         0.016949 
     10 C           0.401866   -0.534071    0.342633 C.ar      1 <1>         0.091344 
     11 O          -3.580607    2.924866   -0.932514 O.2       1 <1>        -0.258804 
     12 C           1.694232   -2.704932   -0.024752 C.3       1 <1>        -0.004325 
     13 C           1.753027   -4.148604   -0.472934 C.2       1 <1>        -0.080815 
     14 C           2.826483   -4.743501   -1.021941 C.2       1 <1>        -0.079306 
     15 C           2.794376   -6.195830   -1.448906 C.3       1 <1>        -0.044040 
     16 C           4.143399   -4.032090   -1.266493 C.3       1 <1>        -0.044040 
     17 O          -0.470578   -3.376693   -1.990441 O.3       1 <1>        -0.347465 
     18 C          -1.624721   -4.223781   -1.831591 C.3       1 <1>         0.043040 
     19 O           1.411267   -0.186175    1.240731 O.3       1 <1>        -0.346877 
     20 C           2.410169    0.694194    0.690533 C.3       1 <1>         0.043065 
     21 C          -1.917903    3.802942    1.245147 C.ar      1 <1>         0.017745 
     22 C          -3.240186    4.351604    1.652145 C.ar      1 <1>         0.082884 
     23 C          -3.316610    5.579796    2.317522 C.ar      1 <1>        -0.001570 
     24 C          -2.095718    6.355327    2.633892 C.ar      1 <1>         0.075055 
     25 C          -0.844820    5.844098    2.257604 C.ar      1 <1>        -0.031201 
     26 C          -0.755228    4.542515    1.550018 C.ar      1 <1>        -0.048954 
     27 O          -2.218942    7.574707    3.304768 O.3       1 <1>        -0.359750 
     28 O          -4.412657    3.655335    1.389674 O.3       1 <1>        -0.359141 
     29 H          -0.137703    1.851421    1.693987 H         1 <1>         0.063295 
     30 H          -2.355026   -1.421695   -2.352109 H         1 <1>         0.066964 
     31 H           1.759636   -2.720311    1.074682 H         1 <1>         0.035722 
     32 H           2.547642   -2.137801   -0.411235 H         1 <1>         0.035722 
     33 H           0.848256   -4.730624   -0.314110 H         1 <1>         0.057473 
     34 H           3.610647   -6.747912   -0.953165 H         1 <1>         0.027427 
     35 H           1.847016   -6.699112   -1.199891 H         1 <1>         0.027427 
     36 H           2.939142   -6.250568   -2.539466 H         1 <1>         0.027427 
     37 H           4.955835   -4.743125   -1.483605 H         1 <1>         0.027427 
     38 H           4.457389   -3.446160   -0.390440 H         1 <1>         0.027427 
     39 H           4.036819   -3.368927   -2.137151 H         1 <1>         0.027427 
     40 H          -1.410694   -5.172044   -2.344318 H         1 <1>         0.052870 
     41 H          -1.804676   -4.424583   -0.763989 H         1 <1>         0.052870 
     42 H          -2.540082   -3.802112   -2.273367 H         1 <1>         0.052870 
     43 H           3.182199    0.860707    1.455547 H         1 <1>         0.052870 
     44 H           1.967312    1.664765    0.426225 H         1 <1>         0.052870 
     45 H           2.898502    0.276634   -0.204412 H         1 <1>         0.052870 
     46 H          -4.280841    5.977382    2.613284 H         1 <1>         0.066920 
     47 H           0.065679    6.389985    2.480367 H         1 <1>         0.064340 
     48 H           0.229537    4.176944    1.264833 H         1 <1>         0.062523 
     49 H          -1.389707    8.005436    3.481611 H         1 <1>         0.217315 
     50 H          -4.553381    3.585802    0.449674 H         1 <1>         0.217339 
@<TRIPOS>BOND
     1    1    2 1    
     2    1    6 1    
     3    1   11 2    
     4    2    3 2    
     5    2   21 1    
     6    3    4 1    
     7    3   29 1    
     8    4    5 1    
     9    4   10 2    
    10    5    6 1    
    11    5    7 2    
    12    7    8 1    
    13    7   30 1    
    14    8    9 2    
    15    8   17 1    
    16    9   10 1    
    17    9   12 1    
    18   10   19 1    
    19   12   13 1    
    20   12   31 1    
    21   12   32 1    
    22   13   14 2    
    23   13   33 1    
    24   14   15 1    
    25   14   16 1    
    26   15   34 1    
    27   15   35 1    
    28   15   36 1    
    29   16   37 1    
    30   16   38 1    
    31   16   39 1    
    32   17   18 1    
    33   18   40 1    
    34   18   41 1    
    35   18   42 1    
    36   19   20 1    
    37   20   43 1    
    38   20   44 1    
    39   20   45 1    
    40   21   22 1    
    41   21   26 2    
    42   22   23 2    
    43   22   28 1    
    44   23   24 1    
    45   23   46 1    
    46   24   25 2    
    47   24   27 1    
    48   25   26 1    
    49   25   47 1    
    50   26   48 1    
    51   27   49 1    
    52   28   50 1    
@<TRIPOS>SUBSTRUCTURE
     1 ****        1 TEMP              0 ****  ****    0 ROOT 
@<TRIPOS>NORMAL
@<TRIPOS>FF_PBC
FORCE_FIELD_SETUP_FEATURE Force Field Setup information
v1.0  0 0.000000 0.000000 0.000000 0.000000 0.000000 0.000000 NONE 0 0 0 0 1 0 0 0 0 0 0 0 0
