@<TRIPOS>MOLECULE
MOL003346
   55    62     1     1     0
SMALL
GASTEIGER


@<TRIPOS>ATOM
      1 O          -3.512115   -3.453676   -0.699151 O.2       1 <1>        -0.286437 
      2 O           3.895959    2.697512    0.724450 O.2       1 <1>        -0.286437 
      3 O          -5.283104   -1.651461   -0.058708 O.3       1 <1>        -0.359094 
      4 O           2.725018   -4.882208    0.363259 O.3       1 <1>        -0.359123 
      5 O           4.373157   -3.557558   -0.644406 O.3       1 <1>        -0.359123 
      6 O           2.414087    4.757495    0.113373 O.3       1 <1>        -0.359095 
      7 O          -2.064047   -5.589855   -0.403916 O.3       1 <1>        -0.359020 
      8 O           5.756252    0.936145    0.419668 O.3       1 <1>        -0.359020 
      9 O          -2.497613    3.585091    1.688485 O.3       1 <1>        -0.390396 
     10 C          -0.319391   -0.907668   -0.028883 C.ar      1 <1>         0.000382 
     11 C           0.815585    0.039362   -0.007216 C.ar      1 <1>         0.000381 
     12 C          -1.693028   -0.373024    0.059734 C.ar      1 <1>         0.004683 
     13 C           0.517493    1.483809   -0.055885 C.ar      1 <1>         0.004602 
     14 C          -0.055891   -2.366233   -0.127665 C.ar      1 <1>         0.006882 
     15 C           2.212247   -0.471293    0.058177 C.ar      1 <1>         0.006882 
     16 C          -1.972624    1.078959    0.192816 C.ar      1 <1>        -0.003096 
     17 C          -0.867961    2.007741   -0.155604 C.ar      1 <1>        -0.005455 
     18 C           1.339727   -2.886361   -0.045678 C.ar      1 <1>         0.023474 
     19 C           2.498093   -1.930725   -0.085873 C.ar      1 <1>         0.023474 
     20 C          -2.850394   -1.289890   -0.054204 C.ar      1 <1>         0.060336 
     21 C           1.614365    2.470847    0.067546 C.ar      1 <1>         0.060334 
     22 C          -1.170087   -3.266297   -0.254757 C.ar      1 <1>         0.060481 
     23 C           3.283150    0.478220    0.215830 C.ar      1 <1>         0.060481 
     24 C          -3.336456    1.481789    0.641490 C.ar      1 <1>        -0.011405 
     25 C          -1.036174    3.425978   -0.577766 C.ar      1 <1>        -0.039668 
     26 C          -2.579355   -2.737374   -0.371911 C.2       1 <1>         0.199276 
     27 C           2.995766    1.951855    0.372513 C.2       1 <1>         0.199276 
     28 C          -4.170932   -0.821931    0.119009 C.ar      1 <1>         0.084338 
     29 C           1.479444   -4.323293    0.104427 C.ar      1 <1>         0.083421 
     30 C           3.930010   -2.287822   -0.281095 C.ar      1 <1>         0.083421 
     31 C           1.377384    3.843399   -0.081781 C.ar      1 <1>         0.084257 
     32 C          -0.972503   -4.732608   -0.236575 C.ar      1 <1>         0.086446 
     33 C           4.701359    0.046489    0.191511 C.ar      1 <1>         0.086446 
     34 C          -4.390565    0.577688    0.537403 C.ar      1 <1>        -0.025265 
     35 C           0.029554    4.310018   -0.482015 C.ar      1 <1>        -0.027709 
     36 C           0.319874   -5.235435   -0.028193 C.ar      1 <1>        -0.000831 
     37 C           4.989738   -1.276217   -0.083786 C.ar      1 <1>        -0.000831 
     38 C          -3.660567    2.832486    1.303239 C.3       1 <1>         0.069892 
     39 C          -2.329521    3.968578   -1.198208 C.3       1 <1>        -0.039034 
     40 H          -5.398444    0.877596    0.804837 H         1 <1>         0.064705 
     41 H          -0.114882    5.353253   -0.742006 H         1 <1>         0.064623 
     42 H           0.483494   -6.306194    0.022387 H         1 <1>         0.066941 
     43 H           6.027197   -1.585854   -0.142383 H         1 <1>         0.066941 
     44 H          -4.318726    3.427015    0.653736 H         1 <1>         0.060730 
     45 H          -4.232276    2.630441    2.225375 H         1 <1>         0.060730 
     46 H          -3.059999    3.170107   -1.386193 H         1 <1>         0.027773 
     47 H          -2.080824    4.411789   -2.174548 H         1 <1>         0.027773 
     48 H          -2.765103    4.760734   -0.572208 H         1 <1>         0.027773 
     49 H          -5.077484   -2.518069   -0.397479 H         1 <1>         0.217340 
     50 H           2.681992   -5.642920    0.934061 H         1 <1>         0.217340 
     51 H           3.690998   -4.160982   -0.906858 H         1 <1>         0.217340 
     52 H           2.121805    5.659219    0.177703 H         1 <1>         0.217340 
     53 H          -1.861068   -6.517667   -0.367419 H         1 <1>         0.217341 
     54 H           5.478900    1.816780    0.654291 H         1 <1>         0.217341 
     55 H          -1.925160    3.108690    2.283393 H         1 <1>         0.209847 
@<TRIPOS>BOND
     1   26    1 2    
     2   27    2 2    
     3   28    3 1    
     4    3   49 1    
     5   29    4 1    
     6    4   50 1    
     7   30    5 1    
     8    5   51 1    
     9   31    6 1    
    10    6   52 1    
    11   32    7 1    
    12    7   53 1    
    13   33    8 1    
    14    8   54 1    
    15   38    9 1    
    16    9   55 1    
    17   10   11 1    
    18   12   10 2    
    19   10   14 1    
    20   13   11 2    
    21   11   15 1    
    22   16   12 1    
    23   12   20 1    
    24   17   13 1    
    25   13   21 1    
    26   14   18 1    
    27   14   22 2    
    28   15   19 1    
    29   15   23 2    
    30   16   17 2    
    31   24   16 1    
    32   17   25 1    
    33   18   19 1    
    34   18   29 2    
    35   19   30 2    
    36   20   26 1    
    37   20   28 2    
    38   21   27 1    
    39   21   31 2    
    40   26   22 1    
    41   22   32 1    
    42   27   23 1    
    43   23   33 1    
    44   24   34 2    
    45   24   38 1    
    46   25   35 2    
    47   25   39 1    
    48   28   34 1    
    49   29   36 1    
    50   30   37 1    
    51   31   35 1    
    52   32   36 2    
    53   33   37 2    
    54   34   40 1    
    55   35   41 1    
    56   36   42 1    
    57   37   43 1    
    58   38   44 1    
    59   38   45 1    
    60   39   46 1    
    61   39   47 1    
    62   39   48 1    
@<TRIPOS>SUBSTRUCTURE
     1 ****       10 TEMP              0 ****  ****    0 ROOT 
@<TRIPOS>NORMAL
@<TRIPOS>FF_PBC
FORCE_FIELD_SETUP_FEATURE Force Field Setup information
v1.0  0 0.000000 0.000000 0.000000 0.000000 0.000000 0.000000 NONE 0 0 0 0 1 0 0 0 0 0 0 0 0
