@<TRIPOS>MOLECULE
MOL004865
   47    49     1     1     0
SMALL
GASTEIGER


@<TRIPOS>ATOM
      1 C          -1.321851    0.627522    0.221251 C.ar      1 <1>         0.091795 
      2 C          -0.408265   -0.525253    0.041088 C.ar      1 <1>         0.082794 
      3 C          -0.882964   -1.741606   -0.438550 C.ar      1 <1>         0.098077 
      4 C          -2.333026   -1.918008   -0.669771 C.ar      1 <1>        -0.000278 
      5 C          -3.218297   -0.840444   -0.488643 C.ar      1 <1>         0.080983 
      6 C          -2.684304    0.487213   -0.092450 C.ar      1 <1>         0.016576 
      7 C           1.063005   -0.440373    0.333993 C.2       1 <1>         0.200663 
      8 C           1.921786   -1.550404   -0.115085 C.2       1 <1>         0.055105 
      9 C           1.337900   -2.647516   -0.621522 C.2       1 <1>         0.058337 
     10 O           0.000840   -2.785085   -0.715062 O.3       1 <1>        -0.315267 
     11 C           3.433885   -1.436653   -0.012351 C.ar      1 <1>         0.017586 
     12 C           4.279551   -2.630262    0.253622 C.ar      1 <1>         0.082886 
     13 C           5.678263   -2.505326    0.302958 C.ar      1 <1>        -0.001322 
     14 C           6.342687   -1.199979    0.107233 C.ar      1 <1>         0.078287 
     15 C           5.544463   -0.065186   -0.098011 C.ar      1 <1>        -0.030953 
     16 C           4.070443   -0.194799   -0.176287 C.ar      1 <1>        -0.048951 
     17 C          -3.595263    1.724857   -0.053595 C.3       1 <1>        -0.004339 
     18 C          -4.949832    1.548158    0.585608 C.2       1 <1>        -0.080815 
     19 C          -5.979953    2.371600    0.329988 C.2       1 <1>        -0.079306 
     20 C          -7.332125    2.175971    0.976826 C.3       1 <1>        -0.044040 
     21 C          -5.862061    3.550783   -0.615618 C.3       1 <1>        -0.044040 
     22 O          -4.596894   -1.003048   -0.677488 O.3       1 <1>        -0.359385 
     23 O          -0.831111    1.862100    0.655907 O.3       1 <1>        -0.358673 
     24 O           1.492497    0.534038    0.930936 O.2       1 <1>        -0.286388 
     25 O           3.678238   -3.871882    0.467242 O.3       1 <1>        -0.359141 
     26 O           7.741502   -1.144921    0.132372 O.3       1 <1>        -0.347829 
     27 C           8.462428    0.099106    0.094065 C.3       1 <1>         0.043027 
     28 H          -2.699825   -2.893051   -0.971816 H         1 <1>         0.066956 
     29 H           1.910737   -3.486395   -1.003861 H         1 <1>         0.089750 
     30 H           6.298331   -3.371233    0.496325 H         1 <1>         0.066928 
     31 H           5.982356    0.918178   -0.211882 H         1 <1>         0.064348 
     32 H           3.492236    0.698375   -0.378251 H         1 <1>         0.062523 
     33 H          -3.103025    2.555538    0.469853 H         1 <1>         0.035721 
     34 H          -3.715769    2.013052   -1.108398 H         1 <1>         0.035721 
     35 H          -5.069646    0.723346    1.287096 H         1 <1>         0.057473 
     36 H          -7.372265    1.268286    1.596413 H         1 <1>         0.027427 
     37 H          -8.108692    2.097966    0.201036 H         1 <1>         0.027427 
     38 H          -7.553493    3.042552    1.618877 H         1 <1>         0.027427 
     39 H          -4.964385    4.144394   -0.382822 H         1 <1>         0.027427 
     40 H          -6.731234    4.224371   -0.542173 H         1 <1>         0.027427 
     41 H          -5.798297    3.197129   -1.656092 H         1 <1>         0.027427 
     42 H          -4.864395   -1.893388   -0.883458 H         1 <1>         0.217328 
     43 H           0.096907    1.849558    0.873349 H         1 <1>         0.217354 
     44 H           4.232209   -4.607700    0.229491 H         1 <1>         0.217339 
     45 H           9.538060   -0.134316    0.100956 H         1 <1>         0.052870 
     46 H           8.227950    0.703247    0.983538 H         1 <1>         0.052870 
     47 H           8.245782    0.669043   -0.822152 H         1 <1>         0.052870 
@<TRIPOS>BOND
     1    1    2 1    
     2    1    6 2    
     3    1   23 1    
     4    2    3 2    
     5    2    7 1    
     6    3    4 1    
     7    3   10 1    
     8    4    5 2    
     9    4   28 1    
    10    5    6 1    
    11    5   22 1    
    12    6   17 1    
    13    7    8 1    
    14    7   24 2    
    15    8    9 2    
    16    8   11 1    
    17    9   10 1    
    18    9   29 1    
    19   11   12 1    
    20   11   16 2    
    21   12   13 2    
    22   12   25 1    
    23   13   14 1    
    24   13   30 1    
    25   14   15 2    
    26   14   26 1    
    27   15   16 1    
    28   15   31 1    
    29   16   32 1    
    30   17   18 1    
    31   17   33 1    
    32   17   34 1    
    33   18   19 2    
    34   18   35 1    
    35   19   20 1    
    36   19   21 1    
    37   20   36 1    
    38   20   37 1    
    39   20   38 1    
    40   21   39 1    
    41   21   40 1    
    42   21   41 1    
    43   22   42 1    
    44   23   43 1    
    45   25   44 1    
    46   26   27 1    
    47   27   45 1    
    48   27   46 1    
    49   27   47 1    
@<TRIPOS>SUBSTRUCTURE
     1 ****        1 TEMP              0 ****  ****    0 ROOT 
@<TRIPOS>NORMAL
@<TRIPOS>FF_PBC
FORCE_FIELD_SETUP_FEATURE Force Field Setup information
v1.0  0 0.000000 0.000000 0.000000 0.000000 0.000000 0.000000 NONE 0 0 0 0 1 0 0 0 0 0 0 0 0
