@<TRIPOS>MOLECULE
MOL001911
   62    66     1     1     0
SMALL
GASTEIGER


@<TRIPOS>ATOM
      1 O          -2.241987    1.189422    0.112655 O.3       1 <1>        -0.341739 
      2 O          -2.277121   -1.491032    2.546151 O.3       1 <1>        -0.382489 
      3 O          -0.448586    0.333014    1.413008 O.3       1 <1>        -0.314718 
      4 O          -0.433455   -2.274516   -0.348590 O.3       1 <1>        -0.310669 
      5 O          -5.468527   -0.031828   -1.714557 O.2       1 <1>        -0.297002 
      6 O           0.133819    2.088309   -0.015117 O.3       1 <1>        -0.340419 
      7 O           2.269975    0.200112    2.368297 O.3       1 <1>        -0.384103 
      8 O          -0.246109   -4.507188   -0.460059 O.2       1 <1>        -0.259226 
      9 O           4.175027    1.129961    0.331983 O.3       1 <1>        -0.386401 
     10 O           3.372490    3.585408   -1.032400 O.3       1 <1>        -0.386488 
     11 O          -0.875755    4.331706   -1.336752 O.3       1 <1>        -0.392366 
     12 C          -2.564625   -1.128369    0.020134 C.3       1 <1>         0.064578 
     13 C          -2.658832   -0.606812    1.472701 C.3       1 <1>         0.130697 
     14 C          -4.102400   -1.146008   -0.099042 C.3       1 <1>         0.033323 
     15 C          -2.093605    0.093551   -0.806113 C.3       1 <1>         0.079881 
     16 C          -4.195611   -0.454753    1.282053 C.3       1 <1>        -0.007923 
     17 C          -1.843676    0.709625    1.403823 C.3       1 <1>         0.199807 
     18 C          -3.101545    0.233183   -1.962752 C.3       1 <1>         0.033245 
     19 C          -4.347509   -0.281374   -1.303842 C.2       1 <1>         0.139759 
     20 C          -1.859041   -2.474218   -0.285504 C.3       1 <1>         0.068859 
     21 C          -2.192482    1.691441    2.551068 C.3       1 <1>        -0.007564 
     22 C           0.480408    1.411939    1.204616 C.3       1 <1>         0.191157 
     23 C           1.886874    0.770448    1.100328 C.3       1 <1>         0.134223 
     24 C           0.275901   -3.403463   -0.505272 C.2       1 <1>         0.293828 
     25 C           2.942343    1.809770    0.641348 C.3       1 <1>         0.114063 
     26 C           1.030973    3.156376   -0.357509 C.3       1 <1>         0.113007 
     27 C           2.440543    2.567580   -0.618229 C.3       1 <1>         0.111896 
     28 C           1.766871   -3.298667   -0.736659 C.ar      1 <1>         0.046475 
     29 C           0.444744    3.836123   -1.620930 C.3       1 <1>         0.073015 
     30 C           2.620445   -4.338498   -0.373900 C.ar      1 <1>        -0.048875 
     31 C           2.323080   -2.071549   -1.356356 C.ar      1 <1>        -0.048875 
     32 C           4.083118   -4.209066   -0.574855 C.ar      1 <1>        -0.061020 
     33 C           3.707372   -1.934581   -1.533938 C.ar      1 <1>        -0.061020 
     34 C           4.613947   -3.035083   -1.130444 C.ar      1 <1>        -0.061719 
     35 H          -4.545868   -2.154026   -0.140721 H         1 <1>         0.038616 
     36 H          -1.046330    0.024510   -1.143606 H         1 <1>         0.060855 
     37 H          -4.796296   -1.018930    2.012352 H         1 <1>         0.030174 
     38 H          -4.570016    0.575218    1.179671 H         1 <1>         0.030174 
     39 H          -3.190360    1.276157   -2.303832 H         1 <1>         0.036714 
     40 H          -2.839361   -0.422646   -2.807017 H         1 <1>         0.036714 
     41 H          -2.202553   -2.827303   -1.271268 H         1 <1>         0.057347 
     42 H          -2.148118   -3.217039    0.472997 H         1 <1>         0.057347 
     43 H          -2.772705   -2.301435    2.575279 H         1 <1>         0.210420 
     44 H          -1.766060    1.311271    3.491472 H         1 <1>         0.028220 
     45 H          -1.778398    2.686989    2.338166 H         1 <1>         0.028220 
     46 H          -3.275703    1.807992    2.683511 H         1 <1>         0.028220 
     47 H           0.486737    2.097087    2.066756 H         1 <1>         0.093851 
     48 H           1.840480   -0.016486    0.335160 H         1 <1>         0.067097 
     49 H           3.098945    2.522563    1.468578 H         1 <1>         0.064758 
     50 H           1.064112    3.911120    0.446027 H         1 <1>         0.064668 
     51 H           2.366931    1.837664   -1.440796 H         1 <1>         0.064673 
     52 H           1.649030   -0.462554    2.659168 H         1 <1>         0.210110 
     53 H           1.076825    4.684681   -1.926203 H         1 <1>         0.058370 
     54 H           0.402166    3.114176   -2.453817 H         1 <1>         0.058370 
     55 H           4.854253    1.727017    0.032873 H         1 <1>         0.210005 
     56 H           3.508516    4.264196   -0.378607 H         1 <1>         0.210004 
     57 H           2.219349   -5.245934    0.066843 H         1 <1>         0.062527 
     58 H           1.655500   -1.279936   -1.678681 H         1 <1>         0.062527 
     59 H          -1.455206    3.634588   -1.036683 H         1 <1>         0.209508 
     60 H           4.742672   -5.021336   -0.286261 H         1 <1>         0.061778 
     61 H           4.115585   -1.028052   -1.970338 H         1 <1>         0.061778 
     62 H           5.686012   -2.932021   -1.267764 H         1 <1>         0.061759 
@<TRIPOS>BOND
     1    1   15 1    
     2   17    1 1    
     3   13    2 1    
     4    2   43 1    
     5    3   17 1    
     6   22    3 1    
     7   20    4 1    
     8    4   24 1    
     9   19    5 2    
    10    6   22 1    
    11   26    6 1    
    12   23    7 1    
    13    7   52 1    
    14   24    8 2    
    15   25    9 1    
    16    9   55 1    
    17   27   10 1    
    18   10   56 1    
    19   29   11 1    
    20   11   59 1    
    21   13   12 1    
    22   12   14 1    
    23   12   15 1    
    24   12   20 1    
    25   13   16 1    
    26   17   13 1    
    27   16   14 1    
    28   14   19 1    
    29   14   35 1    
    30   15   18 1    
    31   15   36 1    
    32   16   37 1    
    33   16   38 1    
    34   17   21 1    
    35   18   19 1    
    36   18   39 1    
    37   18   40 1    
    38   20   41 1    
    39   20   42 1    
    40   21   44 1    
    41   21   45 1    
    42   21   46 1    
    43   22   23 1    
    44   22   47 1    
    45   25   23 1    
    46   23   48 1    
    47   24   28 1    
    48   27   25 1    
    49   25   49 1    
    50   26   27 1    
    51   26   29 1    
    52   26   50 1    
    53   27   51 1    
    54   28   30 2    
    55   28   31 1    
    56   29   53 1    
    57   29   54 1    
    58   30   32 1    
    59   30   57 1    
    60   31   33 2    
    61   31   58 1    
    62   32   34 2    
    63   32   60 1    
    64   33   34 1    
    65   33   61 1    
    66   34   62 1    
@<TRIPOS>SUBSTRUCTURE
     1 ****        2 TEMP              0 ****  ****    0 ROOT 
@<TRIPOS>NORMAL
@<TRIPOS>FF_PBC
FORCE_FIELD_SETUP_FEATURE Force Field Setup information
v1.0  0 0.000000 0.000000 0.000000 0.000000 0.000000 0.000000 NONE 0 0 0 0 1 0 0 0 0 0 0 0 0
