@<TRIPOS>MOLECULE
MOL004841
   35    36     1     1     0
SMALL
GASTEIGER


@<TRIPOS>ATOM
      1 C           2.094169    0.012217   -0.838090 C.2       1 <1>        -0.013713 
      2 C           2.571073   -1.383327   -0.891787 C.2       1 <1>         0.186081 
      3 O           3.737760   -1.593266   -1.182013 O.2       1 <1>        -0.287281 
      4 C           1.656012   -2.554432   -0.600281 C.ar      1 <1>         0.021815 
      5 C           2.231788   -3.812054   -0.064051 C.ar      1 <1>        -0.048509 
      6 C           1.401793   -4.899680    0.231811 C.ar      1 <1>        -0.031268 
      7 C          -0.060599   -4.811626    0.014456 C.ar      1 <1>         0.072619 
      8 C          -0.607749   -3.628375   -0.508558 C.ar      1 <1>        -0.031268 
      9 C           0.272357   -2.480484   -0.832520 C.ar      1 <1>        -0.048509 
     10 C           1.130483    0.419171   -0.000730 C.2       1 <1>        -0.048410 
     11 C           0.589579    1.832556    0.049877 C.ar      1 <1>         0.007766 
     12 C          -0.832213    2.003612    0.444430 C.ar      1 <1>         0.115070 
     13 C          -1.386052    3.305203    0.502455 C.ar      1 <1>         0.133253 
     14 C          -0.543735    4.482461    0.167844 C.ar      1 <1>         0.104818 
     15 C           0.797955    4.307635   -0.202626 C.ar      1 <1>        -0.028683 
     16 C           1.380473    2.948237   -0.257479 C.ar      1 <1>        -0.049530 
     17 O          -1.570537    0.844842    0.740898 O.3       1 <1>        -0.344671 
     18 C          -2.971541    0.851193    1.053606 C.3       1 <1>         0.043162 
     19 O          -0.864144   -5.909215    0.335020 O.3       1 <1>        -0.359832 
     20 O          -1.118407    5.757249    0.230125 O.3       1 <1>        -0.357213 
     21 O          -2.719887    3.509754    0.868376 O.3       1 <1>        -0.355376 
     22 H           2.573787    0.703728   -1.528145 H         1 <1>         0.065602 
     23 H           3.301999   -3.888999    0.099925 H         1 <1>         0.062539 
     24 H           1.823821   -5.818585    0.624010 H         1 <1>         0.064339 
     25 H          -1.675400   -3.540518   -0.678894 H         1 <1>         0.064339 
     26 H          -0.171187   -1.584460   -1.253591 H         1 <1>         0.062539 
     27 H           0.684065   -0.295726    0.691043 H         1 <1>         0.062540 
     28 H           1.420076    5.160772   -0.450771 H         1 <1>         0.064423 
     29 H           2.423381    2.836185   -0.531139 H         1 <1>         0.062505 
     30 H          -3.280245   -0.194692    1.197234 H         1 <1>         0.052871 
     31 H          -3.561388    1.274226    0.226022 H         1 <1>         0.052871 
     32 H          -3.170025    1.397682    1.988012 H         1 <1>         0.052871 
     33 H          -1.795711   -5.763641    0.214804 H         1 <1>         0.217313 
     34 H          -0.528788    6.470025    0.009939 H         1 <1>         0.217423 
     35 H          -2.948628    4.434085    0.852513 H         1 <1>         0.217502 
@<TRIPOS>BOND
     1    1    2 1    
     2    1   10 2    
     3    1   22 1    
     4    2    3 2    
     5    2    4 1    
     6    4    5 1    
     7    4    9 2    
     8    5    6 2    
     9    5   23 1    
    10    6    7 1    
    11    6   24 1    
    12    7    8 2    
    13    7   19 1    
    14    8    9 1    
    15    8   25 1    
    16    9   26 1    
    17   10   11 1    
    18   10   27 1    
    19   11   12 1    
    20   11   16 2    
    21   12   13 2    
    22   12   17 1    
    23   13   14 1    
    24   13   21 1    
    25   14   15 2    
    26   14   20 1    
    27   15   16 1    
    28   15   28 1    
    29   16   29 1    
    30   17   18 1    
    31   18   30 1    
    32   18   31 1    
    33   18   32 1    
    34   19   33 1    
    35   20   34 1    
    36   21   35 1    
@<TRIPOS>SUBSTRUCTURE
     1 ****        1 TEMP              0 ****  ****    0 ROOT 
@<TRIPOS>NORMAL
@<TRIPOS>FF_PBC
FORCE_FIELD_SETUP_FEATURE Force Field Setup information
v1.0  0 0.000000 0.000000 0.000000 0.000000 0.000000 0.000000 NONE 0 0 0 0 1 0 0 0 0 0 0 0 0
