@<TRIPOS>MOLECULE
MOL000247
   42    41     1     1     0
SMALL
GASTEIGER


@<TRIPOS>ATOM
      1 C           1.428499   -4.431609    1.162409 C.3       1 <1>         0.062627 
      2 C           1.675880   -3.480991    2.308894 C.2       1 <1>        -0.059953 
      3 C           0.981498   -2.361330    2.574580 C.2       1 <1>        -0.074109 
      4 C           1.345590   -1.476859    3.749632 C.3       1 <1>        -0.043707 
      5 C          -0.200554   -1.895706    1.747579 C.3       1 <1>        -0.028492 
      6 C           0.264630   -0.951870    0.608659 C.3       1 <1>        -0.030838 
      7 C          -0.928145   -0.551483   -0.231426 C.2       1 <1>        -0.084718 
      8 C          -1.554967    0.637640   -0.223127 C.2       1 <1>        -0.076231 
      9 C          -2.742752    0.890486   -1.130710 C.3       1 <1>        -0.043778 
     10 C          -1.153820    1.793403    0.673706 C.3       1 <1>        -0.028563 
     11 C          -0.004937    2.639349    0.059883 C.3       1 <1>        -0.030848 
     12 C          -0.445762    3.303529   -1.224699 C.2       1 <1>        -0.084989 
     13 C          -0.075116    2.938129   -2.463385 C.2       1 <1>        -0.079608 
     14 C          -0.560248    3.691293   -3.683427 C.3       1 <1>        -0.044049 
     15 C           0.840337    1.765435   -2.738710 C.3       1 <1>        -0.044049 
     16 O           2.693910   -4.999794    0.777628 O.3       1 <1>        -0.390994 
     17 H           0.745318   -5.223297    1.512067 H         1 <1>         0.060126 
     18 H           0.983880   -3.930575    0.288572 H         1 <1>         0.060126 
     19 H           2.500794   -3.764549    2.963519 H         1 <1>         0.059410 
     20 H           2.246723   -1.817381    4.281696 H         1 <1>         0.027437 
     21 H           1.528282   -0.449172    3.403108 H         1 <1>         0.027437 
     22 H           0.512796   -1.462232    4.468662 H         1 <1>         0.027437 
     23 H          -0.751140   -2.752461    1.329980 H         1 <1>         0.031286 
     24 H          -0.913788   -1.352477    2.388401 H         1 <1>         0.031286 
     25 H           0.794934   -0.094058    1.041672 H         1 <1>         0.031044 
     26 H           0.986720   -1.470956   -0.041039 H         1 <1>         0.031044 
     27 H          -1.294095   -1.334647   -0.897010 H         1 <1>         0.057163 
     28 H          -3.639312    1.050556   -0.513359 H         1 <1>         0.027436 
     29 H          -2.577264    1.786939   -1.744128 H         1 <1>         0.027436 
     30 H          -2.949153    0.053760   -1.814803 H         1 <1>         0.027436 
     31 H          -2.022011    2.449841    0.846324 H         1 <1>         0.031285 
     32 H          -0.854821    1.418405    1.664941 H         1 <1>         0.031285 
     33 H           0.272954    3.434289    0.771540 H         1 <1>         0.031044 
     34 H           0.891763    2.021696   -0.085073 H         1 <1>         0.031044 
     35 H          -1.125624    4.147893   -1.102200 H         1 <1>         0.057155 
     36 H          -1.164083    3.019256   -4.311790 H         1 <1>         0.027427 
     37 H          -1.175566    4.568711   -3.433135 H         1 <1>         0.027427 
     38 H           0.306828    4.038277   -4.265600 H         1 <1>         0.027427 
     39 H           1.875169    2.043556   -2.489586 H         1 <1>         0.027427 
     40 H           0.548775    0.884838   -2.149043 H         1 <1>         0.027427 
     41 H           0.808452    1.471591   -3.798814 H         1 <1>         0.027427 
     42 H           2.623121   -5.635159    0.071155 H         1 <1>         0.209823 
@<TRIPOS>BOND
     1    1    2 1    
     2    1   16 1    
     3    1   17 1    
     4    1   18 1    
     5    2    3 2    
     6    2   19 1    
     7    3    4 1    
     8    3    5 1    
     9    4   20 1    
    10    4   21 1    
    11    4   22 1    
    12    5    6 1    
    13    5   23 1    
    14    5   24 1    
    15    6    7 1    
    16    6   25 1    
    17    6   26 1    
    18    7    8 2    
    19    7   27 1    
    20    8    9 1    
    21    8   10 1    
    22    9   28 1    
    23    9   29 1    
    24    9   30 1    
    25   10   11 1    
    26   10   31 1    
    27   10   32 1    
    28   11   12 1    
    29   11   33 1    
    30   11   34 1    
    31   12   13 2    
    32   12   35 1    
    33   13   14 1    
    34   13   15 1    
    35   14   36 1    
    36   14   37 1    
    37   14   38 1    
    38   15   39 1    
    39   15   40 1    
    40   15   41 1    
    41   16   42 1    
@<TRIPOS>SUBSTRUCTURE
     1 ****        1 TEMP              0 ****  ****    0 ROOT 
@<TRIPOS>NORMAL
@<TRIPOS>FF_PBC
FORCE_FIELD_SETUP_FEATURE Force Field Setup information
v1.0  0 0.000000 0.000000 0.000000 0.000000 0.000000 0.000000 NONE 0 0 0 0 1 0 0 0 0 0 0 0 0
