@<TRIPOS>MOLECULE
MOL006966
  104   103     1     1     0
SMALL
GASTEIGER


@<TRIPOS>ATOM
      1 C          -0.474603    0.440774   -1.692939 C.2       1 <1>         0.242019 
      2 C          -1.176725   -0.124834   -2.910521 C.3       1 <1>         0.130868 
      3 C          -2.475795    0.643547   -3.288893 C.3       1 <1>        -0.018274 
      4 C          -3.619188    0.449490   -2.252193 C.3       1 <1>        -0.050258 
      5 C          -4.918682    1.164532   -2.715361 C.3       1 <1>        -0.052965 
      6 C          -6.087263    0.938578   -1.716791 C.3       1 <1>        -0.053056 
      7 C          -7.393667    1.610897   -2.221856 C.3       1 <1>        -0.053057 
      8 C          -8.578182    1.363776   -1.247962 C.3       1 <1>        -0.053057 
      9 C          -9.888002    2.005722   -1.782572 C.3       1 <1>        -0.053057 
     10 C         -11.086727    1.726998   -0.834854 C.3       1 <1>        -0.053057 
     11 C         -12.399903    2.347318   -1.386667 C.3       1 <1>        -0.053057 
     12 C         -13.602270    2.052691   -0.448590 C.3       1 <1>        -0.053057 
     13 C         -14.920494    2.654997   -1.007907 C.3       1 <1>        -0.053065 
     14 C         -16.124909    2.338388   -0.079251 C.3       1 <1>        -0.053306 
     15 C         -17.447557    2.923796   -0.645137 C.3       1 <1>        -0.055911 
     16 C         -18.648951    2.600754    0.281153 C.3       1 <1>        -0.065276 
     17 O          -0.889731    1.455300   -1.156153 O.2       1 <1>        -0.272971 
     18 N           0.617354   -0.215957   -1.238065 N.am      1 <1>        -0.305348 
     19 C           0.599741   -0.199247    1.214069 C.3       1 <1>         0.065266 
     20 C           1.346042    0.267836   -0.063109 C.3       1 <1>         0.075645 
     21 C           2.806651   -0.263103   -0.124746 C.3       1 <1>         0.093762 
     22 C           3.626110    0.171839    1.068218 C.2       1 <1>        -0.057979 
     23 C           4.476338    1.207148    1.034522 C.2       1 <1>        -0.085181 
     24 C           5.300659    1.638813    2.224919 C.3       1 <1>        -0.031246 
     25 C           6.810074    1.443902    1.924086 C.3       1 <1>        -0.031325 
     26 C           7.677652    1.894808    3.075850 C.2       1 <1>        -0.087643 
     27 C           9.004660    1.710841    3.142378 C.2       1 <1>        -0.087922 
     28 C           9.853255    1.038252    2.086892 C.3       1 <1>        -0.034761 
     29 C          10.387728   -0.312943    2.630107 C.3       1 <1>        -0.049616 
     30 C          11.298306   -1.022264    1.590979 C.3       1 <1>        -0.052779 
     31 C          11.860609   -2.357008    2.151773 C.3       1 <1>        -0.053048 
     32 C          12.794933   -3.054806    1.125536 C.3       1 <1>        -0.053057 
     33 C          13.379494   -4.372997    1.702544 C.3       1 <1>        -0.053065 
     34 C          14.322596   -5.070161    0.684583 C.3       1 <1>        -0.053306 
     35 C          14.922841   -6.375003    1.275159 C.3       1 <1>        -0.055911 
     36 C          15.876927   -7.064790    0.265839 C.3       1 <1>        -0.065276 
     37 O           1.147748    0.447029    2.379124 O.3       1 <1>        -0.393086 
     38 O           2.774933   -1.701265   -0.191640 O.3       1 <1>        -0.385850 
     39 O          -0.236667   -0.085804   -4.004580 O.3       1 <1>        -0.382571 
     40 H          -1.428871   -1.175801   -2.687516 H         1 <1>         0.069005 
     41 H          -2.241455    1.713773   -3.407218 H         1 <1>         0.029483 
     42 H          -2.832435    0.265597   -4.260917 H         1 <1>         0.029483 
     43 H          -3.824421   -0.627395   -2.135877 H         1 <1>         0.026620 
     44 H          -3.321031    0.848530   -1.270031 H         1 <1>         0.026620 
     45 H          -4.725866    2.245575   -2.814929 H         1 <1>         0.026530 
     46 H          -5.213295    0.774283   -3.703475 H         1 <1>         0.026530 
     47 H          -6.260660   -0.143792   -1.598922 H         1 <1>         0.026528 
     48 H          -5.815671    1.353896   -0.732376 H         1 <1>         0.026528 
     49 H          -7.229477    2.695507   -2.330240 H         1 <1>         0.026528 
     50 H          -7.650956    1.200616   -3.212387 H         1 <1>         0.026528 
     51 H          -8.729126    0.278035   -1.129034 H         1 <1>         0.026528 
     52 H          -8.336464    1.789168   -0.260105 H         1 <1>         0.026528 
     53 H          -9.746481    3.094434   -1.884030 H         1 <1>         0.026528 
     54 H         -10.113998    1.593059   -2.779683 H         1 <1>         0.026528 
     55 H         -11.218228    0.637577   -0.726762 H         1 <1>         0.026528 
     56 H         -10.871346    2.149479    0.160422 H         1 <1>         0.026528 
     57 H         -12.274478    3.437720   -1.490085 H         1 <1>         0.026528 
     58 H         -12.607984    1.927595   -2.384696 H         1 <1>         0.026528 
     59 H         -13.719202    0.961843   -0.340616 H         1 <1>         0.026528 
     60 H         -13.400561    2.478701    0.547767 H         1 <1>         0.026528 
     61 H         -14.811188    3.747514   -1.105348 H         1 <1>         0.026528 
     62 H         -15.115296    2.236960   -2.009292 H         1 <1>         0.026528 
     63 H         -16.228516    1.245501    0.023768 H         1 <1>         0.026520 
     64 H         -15.936393    2.762946    0.920695 H         1 <1>         0.026520 
     65 H         -17.353612    4.018056   -0.746366 H         1 <1>         0.026265 
     66 H         -17.640937    2.500479   -1.645098 H         1 <1>         0.026265 
     67 H         -19.575944    3.021528   -0.139531 H         1 <1>         0.022978 
     68 H         -18.773919    1.511310    0.383138 H         1 <1>         0.022978 
     69 H         -18.490595    3.033909    1.281063 H         1 <1>         0.022978 
     70 H           0.932343   -1.059789   -1.679765 H         1 <1>         0.149235 
     71 H          -0.464792    0.074097    1.119611 H         1 <1>         0.057641 
     72 H           0.671966   -1.296692    1.294716 H         1 <1>         0.057641 
     73 H           1.387033    1.371128   -0.057416 H         1 <1>         0.054965 
     74 H           3.251549    0.120961   -1.060108 H         1 <1>         0.065688 
     75 H           3.501432   -0.401812    1.986576 H         1 <1>         0.059494 
     76 H           4.595227    1.779077    0.113167 H         1 <1>         0.056985 
     77 H           5.037052    1.066664    3.129588 H         1 <1>         0.031028 
     78 H           5.091818    2.702364    2.423798 H         1 <1>         0.031028 
     79 H           7.078786    2.028536    1.029481 H         1 <1>         0.031027 
     80 H           6.988706    0.375402    1.721134 H         1 <1>         0.031027 
     81 H           7.195435    2.405913    3.911579 H         1 <1>         0.056905 
     82 H           9.530125    2.071281    4.029717 H         1 <1>         0.056896 
     83 H           9.303898    0.862593    1.150145 H         1 <1>         0.030732 
     84 H          10.698600    1.704887    1.851577 H         1 <1>         0.030732 
     85 H          10.961525   -0.130171    3.553764 H         1 <1>         0.026822 
     86 H           9.533016   -0.963604    2.878197 H         1 <1>         0.026822 
     87 H          10.720007   -1.225158    0.674548 H         1 <1>         0.026538 
     88 H          12.136947   -0.356157    1.329996 H         1 <1>         0.026538 
     89 H          12.426518   -2.152722    3.075802 H         1 <1>         0.026529 
     90 H          11.023623   -3.030145    2.400900 H         1 <1>         0.026529 
     91 H          12.228654   -3.276072    0.205891 H         1 <1>         0.026528 
     92 H          13.622819   -2.374443    0.865919 H         1 <1>         0.026528 
     93 H          13.943468   -4.146736    2.622399 H         1 <1>         0.026528 
     94 H          12.553994   -5.055812    1.962243 H         1 <1>         0.026528 
     95 H          13.757930   -5.310003   -0.231548 H         1 <1>         0.026520 
     96 H          15.142189   -4.383223    0.416620 H         1 <1>         0.026520 
     97 H          15.483670   -6.140342    2.195380 H         1 <1>         0.026265 
     98 H          14.107891   -7.070896    1.535905 H         1 <1>         0.026265 
     99 H          16.289277   -7.987536    0.704079 H         1 <1>         0.022978 
    100 H          15.336017   -7.326640   -0.656756 H         1 <1>         0.022978 
    101 H          16.712987   -6.395632    0.008636 H         1 <1>         0.022978 
    102 H           0.714637    0.191491    3.188166 H         1 <1>         0.209477 
    103 H           3.644173   -2.085834   -0.256825 H         1 <1>         0.210289 
    104 H          -0.565147   -0.479425   -4.807180 H         1 <1>         0.210426 
@<TRIPOS>BOND
     1    1    2 1    
     2    1   17 2    
     3    1   18 1    
     4    2    3 1    
     5    2   39 1    
     6    2   40 1    
     7    3    4 1    
     8    3   41 1    
     9    3   42 1    
    10    4    5 1    
    11    4   43 1    
    12    4   44 1    
    13    5    6 1    
    14    5   45 1    
    15    5   46 1    
    16    6    7 1    
    17    6   47 1    
    18    6   48 1    
    19    7    8 1    
    20    7   49 1    
    21    7   50 1    
    22    8    9 1    
    23    8   51 1    
    24    8   52 1    
    25    9   10 1    
    26    9   53 1    
    27    9   54 1    
    28   10   11 1    
    29   10   55 1    
    30   10   56 1    
    31   11   12 1    
    32   11   57 1    
    33   11   58 1    
    34   12   13 1    
    35   12   59 1    
    36   12   60 1    
    37   13   14 1    
    38   13   61 1    
    39   13   62 1    
    40   14   15 1    
    41   14   63 1    
    42   14   64 1    
    43   15   16 1    
    44   15   65 1    
    45   15   66 1    
    46   16   67 1    
    47   16   68 1    
    48   16   69 1    
    49   18   20 1    
    50   18   70 1    
    51   20   19 1    
    52   19   37 1    
    53   19   71 1    
    54   19   72 1    
    55   20   21 1    
    56   20   73 1    
    57   21   22 1    
    58   21   38 1    
    59   21   74 1    
    60   22   23 2    
    61   22   75 1    
    62   23   24 1    
    63   23   76 1    
    64   24   25 1    
    65   24   77 1    
    66   24   78 1    
    67   25   26 1    
    68   25   79 1    
    69   25   80 1    
    70   26   27 2    
    71   26   81 1    
    72   27   28 1    
    73   27   82 1    
    74   28   29 1    
    75   28   83 1    
    76   28   84 1    
    77   29   30 1    
    78   29   85 1    
    79   29   86 1    
    80   30   31 1    
    81   30   87 1    
    82   30   88 1    
    83   31   32 1    
    84   31   89 1    
    85   31   90 1    
    86   32   33 1    
    87   32   91 1    
    88   32   92 1    
    89   33   34 1    
    90   33   93 1    
    91   33   94 1    
    92   34   35 1    
    93   34   95 1    
    94   34   96 1    
    95   35   36 1    
    96   35   97 1    
    97   35   98 1    
    98   36   99 1    
    99   36  100 1    
   100   36  101 1    
   101   37  102 1    
   102   38  103 1    
   103   39  104 1    
@<TRIPOS>SUBSTRUCTURE
     1 ****        1 TEMP              0 ****  ****    0 ROOT 
@<TRIPOS>NORMAL
@<TRIPOS>FF_PBC
FORCE_FIELD_SETUP_FEATURE Force Field Setup information
v1.0  0 0.000000 0.000000 0.000000 0.000000 0.000000 0.000000 NONE 0 0 0 0 1 0 0 0 0 0 0 0 0
