@<TRIPOS>MOLECULE
MOL004940
   52    55     1     1     0
SMALL
GASTEIGER


@<TRIPOS>ATOM
      1 C           0.389015    1.645651   -1.254846 C.ar      1 <1>        -0.046336 
      2 C          -0.567462    0.516369   -1.371520 C.ar      1 <1>        -0.030746 
      3 C           1.388496    1.617615   -0.270039 C.ar      1 <1>         0.047605 
      4 C           1.495698    0.453144    0.640092 C.ar      1 <1>         0.089883 
      5 C           0.578830   -0.595206    0.539389 C.ar      1 <1>        -0.000823 
      6 C          -0.495115   -0.574805   -0.479633 C.ar      1 <1>         0.081947 
      7 C           2.375380    2.742959   -0.094449 C.2       1 <1>         0.168428 
      8 C           3.499067    2.555972    0.887775 C.3       1 <1>         0.041476 
      9 C           3.008230    1.671362    2.061598 C.3       1 <1>         0.097160 
     10 O           2.515085    0.403207    1.592893 O.3       1 <1>        -0.335670 
     11 C           4.182549    1.402473    3.009975 C.ar      1 <1>        -0.017820 
     12 C           4.283963    2.090226    4.322690 C.ar      1 <1>        -0.053661 
     13 C           5.373467    1.838075    5.164330 C.ar      1 <1>        -0.031601 
     14 C           6.434829    0.890612    4.760284 C.ar      1 <1>         0.072600 
     15 C           6.336767    0.231699    3.522990 C.ar      1 <1>        -0.031601 
     16 C           5.181877    0.493017    2.634845 C.ar      1 <1>        -0.053661 
     17 O           2.272851    3.776961   -0.731932 O.2       1 <1>        -0.291871 
     18 O           7.518826    0.669068    5.619091 O.3       1 <1>        -0.359832 
     19 C          -5.120140   -1.721187   -2.590262 C.3       1 <1>         0.111896 
     20 C          -4.311475   -3.047320   -2.532761 C.3       1 <1>         0.114074 
     21 C          -3.243762   -3.004637   -1.407140 C.3       1 <1>         0.134509 
     22 C          -2.378517   -1.733558   -1.572867 C.3       1 <1>         0.193644 
     23 O          -3.242654   -0.587721   -1.481425 O.3       1 <1>        -0.340168 
     24 C          -4.158800   -0.500572   -2.586831 C.3       1 <1>         0.113017 
     25 O          -1.404119   -1.646071   -0.522409 O.3       1 <1>        -0.312468 
     26 C          -4.900584    0.858534   -2.483058 C.3       1 <1>         0.073015 
     27 O          -5.205377   -4.154482   -2.303897 O.3       1 <1>        -0.386401 
     28 O          -5.932179   -1.716014   -3.781349 O.3       1 <1>        -0.386488 
     29 O          -2.432873   -4.193815   -1.481308 O.3       1 <1>        -0.384091 
     30 O          -5.434313    1.210528   -3.773505 O.3       1 <1>        -0.392366 
     31 H           0.308930    2.491527   -1.927785 H         1 <1>         0.062610 
     32 H          -1.305823    0.577128   -2.157251 H         1 <1>         0.064350 
     33 H           0.658650   -1.441224    1.214427 H         1 <1>         0.066939 
     34 H           3.837894    3.532009    1.268727 H         1 <1>         0.037398 
     35 H           4.332990    2.070577    0.360488 H         1 <1>         0.037398 
     36 H           2.193029    2.182343    2.602226 H         1 <1>         0.065571 
     37 H           3.513603    2.789248    4.632718 H         1 <1>         0.062190 
     38 H           5.448331    2.338160    6.125466 H         1 <1>         0.064329 
     39 H           7.100869   -0.469059    3.205060 H         1 <1>         0.064329 
     40 H           5.114025   -0.025169    1.682822 H         1 <1>         0.062190 
     41 H           8.158365    0.050895    5.292433 H         1 <1>         0.217313 
     42 H          -5.756360   -1.687838   -1.689257 H         1 <1>         0.064673 
     43 H          -3.803124   -3.177408   -3.504714 H         1 <1>         0.064758 
     44 H          -3.759920   -2.954920   -0.432186 H         1 <1>         0.067108 
     45 H          -1.831520   -1.801158   -2.529232 H         1 <1>         0.094159 
     46 H          -3.595236   -0.476013   -3.535971 H         1 <1>         0.064668 
     47 H          -5.702299    0.809894   -1.725784 H         1 <1>         0.058370 
     48 H          -4.168712    1.620108   -2.164168 H         1 <1>         0.058370 
     49 H          -4.742113   -4.986921   -2.267278 H         1 <1>         0.210005 
     50 H          -6.446445   -0.920098   -3.878955 H         1 <1>         0.210004 
     51 H          -1.752752   -4.200681   -0.813347 H         1 <1>         0.210111 
     52 H          -5.809942    2.086514   -3.795160 H         1 <1>         0.209508 
@<TRIPOS>BOND
     1    2    1 1    
     2    1    3 2    
     3    1   31 1    
     4    6    2 2    
     5    2   32 1    
     6    4    3 1    
     7    3    7 1    
     8    5    4 2    
     9    4   10 1    
    10    6    5 1    
    11    5   33 1    
    12   25    6 1    
    13    7    8 1    
    14    7   17 2    
    15    9    8 1    
    16    8   34 1    
    17    8   35 1    
    18   10    9 1    
    19    9   11 1    
    20    9   36 1    
    21   11   12 1    
    22   11   16 2    
    23   12   13 2    
    24   12   37 1    
    25   13   14 1    
    26   13   38 1    
    27   15   14 2    
    28   14   18 1    
    29   16   15 1    
    30   15   39 1    
    31   16   40 1    
    32   18   41 1    
    33   20   19 1    
    34   19   24 1    
    35   19   28 1    
    36   19   42 1    
    37   21   20 1    
    38   20   27 1    
    39   20   43 1    
    40   22   21 1    
    41   21   29 1    
    42   21   44 1    
    43   22   23 1    
    44   22   25 1    
    45   22   45 1    
    46   23   24 1    
    47   24   26 1    
    48   24   46 1    
    49   26   30 1    
    50   26   47 1    
    51   26   48 1    
    52   27   49 1    
    53   28   50 1    
    54   29   51 1    
    55   30   52 1    
@<TRIPOS>SUBSTRUCTURE
     1 ****       19 TEMP              0 ****  ****    0 ROOT 
@<TRIPOS>NORMAL
@<TRIPOS>FF_PBC
FORCE_FIELD_SETUP_FEATURE Force Field Setup information
v1.0  0 0.000000 0.000000 0.000000 0.000000 0.000000 0.000000 NONE 0 0 0 0 1 0 0 0 0 0 0 0 0
