@<TRIPOS>MOLECULE
MOL001905
   79    83     1     1     0
SMALL
GASTEIGER


@<TRIPOS>ATOM
      1 C          -5.066527   -2.655807   -0.773659 C.3       1 <1>         0.060638 
      2 C          -5.217416   -1.132129   -0.550384 C.3       1 <1>        -0.025822 
      3 C          -3.877779   -0.376352   -0.762624 C.3       1 <1>        -0.044448 
      4 C          -3.944873   -3.289888    0.121687 C.3       1 <1>        -0.005580 
      5 C          -3.733395   -4.771122   -0.353408 C.3       1 <1>        -0.057190 
      6 C          -4.415351   -3.382236    1.605630 C.3       1 <1>        -0.057190 
      7 C          -2.616715   -2.456100   -0.085940 C.3       1 <1>        -0.027564 
      8 C          -1.340084   -3.051824    0.585421 C.3       1 <1>        -0.048590 
      9 C          -0.036105   -2.399045    0.039940 C.3       1 <1>        -0.045985 
     10 C           0.016474   -0.844420    0.160677 C.3       1 <1>        -0.015931 
     11 C           0.192078   -0.452582    1.677315 C.3       1 <1>        -0.058208 
     12 C           1.223864   -0.236195   -0.687386 C.3       1 <1>        -0.001096 
     13 C           1.021380   -0.199851   -2.247182 C.3       1 <1>        -0.055018 
     14 C           2.557159   -1.013007   -0.409312 C.3       1 <1>        -0.041835 
     15 C           3.812132   -0.170708   -0.722906 C.3       1 <1>        -0.033734 
     16 C           3.773002    1.158622    0.085523 C.3       1 <1>         0.077419 
     17 C           4.216340    0.835794    1.500658 C.2       1 <1>         0.269875 
     18 C           4.776221    2.137904   -0.607971 C.3       1 <1>        -0.034050 
     19 C           4.769746    3.556751    0.010166 C.3       1 <1>        -0.046320 
     20 C           3.344047    4.181410    0.016184 C.3       1 <1>        -0.031122 
     21 C           3.406274    5.552036    0.755145 C.3       1 <1>        -0.059522 
     22 C           2.775623    4.411914   -1.417114 C.3       1 <1>        -0.059522 
     23 C           2.414292    3.206946    0.783431 C.3       1 <1>        -0.024992 
     24 C           2.399306    1.818698    0.154760 C.2       1 <1>        -0.049748 
     25 C           1.268216    1.221606   -0.272930 C.2       1 <1>        -0.040934 
     26 C          -0.054341    1.896606   -0.371337 C.2       1 <1>        -0.061672 
     27 C          -1.226298    1.239447   -0.422978 C.2       1 <1>        -0.079573 
     28 C          -1.334885   -0.273980   -0.396418 C.3       1 <1>        -0.010743 
     29 C          -2.694770   -0.894151    0.131372 C.3       1 <1>        -0.021809 
     30 C          -2.971881   -0.429061    1.602714 C.3       1 <1>        -0.058736 
     31 O           3.438613    0.782387    2.442303 O.2       1 <1>        -0.264200 
     32 O           5.521473    0.600075    1.664998 O.3       1 <1>        -0.330609 
     33 O          -6.389153   -3.176576   -0.525374 O.3       1 <1>        -0.391248 
     34 H          -4.810753   -2.803932   -1.838981 H         1 <1>         0.059852 
     35 H          -5.659072   -0.947005    0.437318 H         1 <1>         0.029038 
     36 H          -5.951516   -0.751456   -1.281853 H         1 <1>         0.029038 
     37 H          -4.085850    0.686521   -0.568122 H         1 <1>         0.027158 
     38 H          -3.631053   -0.473360   -1.832795 H         1 <1>         0.027158 
     39 H          -3.101818   -5.340298    0.342299 H         1 <1>         0.023587 
     40 H          -4.675098   -5.332144   -0.403811 H         1 <1>         0.023587 
     41 H          -3.275334   -4.813166   -1.352956 H         1 <1>         0.023587 
     42 H          -4.738191   -2.424378    2.022421 H         1 <1>         0.023587 
     43 H          -5.277007   -4.062729    1.682845 H         1 <1>         0.023587 
     44 H          -3.616040   -3.784167    2.244598 H         1 <1>         0.023587 
     45 H          -2.423494   -2.588370   -1.163871 H         1 <1>         0.031219 
     46 H          -1.227444   -4.118518    0.345945 H         1 <1>         0.026846 
     47 H          -1.397796   -2.994658    1.678372 H         1 <1>         0.026846 
     48 H           0.053115   -2.684459   -1.019102 H         1 <1>         0.027105 
     49 H           0.813011   -2.850636    0.576813 H         1 <1>         0.027105 
     50 H          -0.031219    0.604797    1.873317 H         1 <1>         0.023552 
     51 H          -0.440770   -1.035195    2.346197 H         1 <1>         0.023552 
     52 H           1.202752   -0.615430    2.060385 H         1 <1>         0.023552 
     53 H           1.908017    0.175380   -2.768007 H         1 <1>         0.023838 
     54 H           0.225128    0.478089   -2.582925 H         1 <1>         0.023838 
     55 H           0.813394   -1.199713   -2.651384 H         1 <1>         0.023838 
     56 H           2.587343   -1.934649   -1.013772 H         1 <1>         0.027422 
     57 H           2.684282   -1.324683    0.633305 H         1 <1>         0.027422 
     58 H           4.720287   -0.743533   -0.467055 H         1 <1>         0.027878 
     59 H           3.881161    0.012937   -1.802334 H         1 <1>         0.027878 
     60 H           5.798364    1.728562   -0.561420 H         1 <1>         0.027868 
     61 H           4.532337    2.244837   -1.675296 H         1 <1>         0.027868 
     62 H           5.462061    4.208758   -0.548634 H         1 <1>         0.027090 
     63 H           5.148714    3.478704    1.042662 H         1 <1>         0.027090 
     64 H           2.406353    6.005418    0.829537 H         1 <1>         0.023508 
     65 H           4.061046    6.249578    0.210577 H         1 <1>         0.023508 
     66 H           3.802648    5.431276    1.774982 H         1 <1>         0.023508 
     67 H           3.484966    4.998566   -2.019637 H         1 <1>         0.023508 
     68 H           2.565585    3.469413   -1.942912 H         1 <1>         0.023508 
     69 H           1.828480    4.969454   -1.361137 H         1 <1>         0.023508 
     70 H           1.433208    3.675181    0.913351 H         1 <1>         0.031565 
     71 H           2.802410    3.102958    1.807234 H         1 <1>         0.031565 
     72 H          -0.129807    2.980003   -0.437848 H         1 <1>         0.061745 
     73 H          -2.127599    1.844478   -0.506219 H         1 <1>         0.057525 
     74 H          -1.366495   -0.558102   -1.453798 H         1 <1>         0.035395 
     75 H          -2.448949    0.511985    1.819671 H         1 <1>         0.023534 
     76 H          -2.679275   -1.171177    2.353195 H         1 <1>         0.023534 
     77 H          -4.024858   -0.202326    1.801671 H         1 <1>         0.023534 
     78 H           5.738367    0.404300    2.569495 H         1 <1>         0.220236 
     79 H          -6.524529   -4.081746   -0.778471 H         1 <1>         0.209800 
@<TRIPOS>BOND
     1    1    2 1    
     2    1    4 1    
     3    1   33 1    
     4    1   34 1    
     5    2    3 1    
     6    2   35 1    
     7    2   36 1    
     8    3   29 1    
     9    3   37 1    
    10    3   38 1    
    11    4    5 1    
    12    4    6 1    
    13    4    7 1    
    14    5   39 1    
    15    5   40 1    
    16    5   41 1    
    17    6   42 1    
    18    6   43 1    
    19    6   44 1    
    20    7    8 1    
    21    7   29 1    
    22    7   45 1    
    23    8    9 1    
    24    8   46 1    
    25    8   47 1    
    26    9   10 1    
    27    9   48 1    
    28    9   49 1    
    29   10   11 1    
    30   10   12 1    
    31   10   28 1    
    32   11   50 1    
    33   11   51 1    
    34   11   52 1    
    35   12   13 1    
    36   12   14 1    
    37   12   25 1    
    38   13   53 1    
    39   13   54 1    
    40   13   55 1    
    41   14   15 1    
    42   14   56 1    
    43   14   57 1    
    44   15   16 1    
    45   15   58 1    
    46   15   59 1    
    47   16   17 1    
    48   16   18 1    
    49   16   24 1    
    50   17   31 2    
    51   17   32 1    
    52   18   19 1    
    53   18   60 1    
    54   18   61 1    
    55   19   20 1    
    56   19   62 1    
    57   19   63 1    
    58   20   21 1    
    59   20   22 1    
    60   20   23 1    
    61   21   64 1    
    62   21   65 1    
    63   21   66 1    
    64   22   67 1    
    65   22   68 1    
    66   22   69 1    
    67   23   24 1    
    68   23   70 1    
    69   23   71 1    
    70   24   25 2    
    71   25   26 1    
    72   26   27 2    
    73   26   72 1    
    74   27   28 1    
    75   27   73 1    
    76   28   29 1    
    77   28   74 1    
    78   29   30 1    
    79   30   75 1    
    80   30   76 1    
    81   30   77 1    
    82   32   78 1    
    83   33   79 1    
@<TRIPOS>SUBSTRUCTURE
     1 ****        1 TEMP              0 ****  ****    0 ROOT 
@<TRIPOS>NORMAL
@<TRIPOS>FF_PBC
FORCE_FIELD_SETUP_FEATURE Force Field Setup information
v1.0  0 0.000000 0.000000 0.000000 0.000000 0.000000 0.000000 NONE 0 0 0 0 1 0 0 0 0 0 0 0 0
