@<TRIPOS>MOLECULE
MOL001540
   75    79     1     1     0
SMALL
GASTEIGER


@<TRIPOS>ATOM
      1 O          -6.352179   -3.320936   -1.313969 O.3       1 <1>        -0.339873 
      2 O          -6.687277   -0.730993   -0.624805 O.3       1 <1>        -0.361013 
      3 O          -4.877436   -3.488873   -3.071968 O.3       1 <1>        -0.340520 
      4 O          -8.448097   -3.741933    1.524229 O.3       1 <1>        -0.386467 
      5 O          -9.796594   -2.282566   -1.321509 O.3       1 <1>        -0.386490 
      6 O          -3.798488   -6.007978   -1.922542 O.3       1 <1>        -0.384104 
      7 O          -7.473673   -5.815897   -2.028333 O.3       1 <1>        -0.386401 
      8 O          -4.784428   -6.092308   -4.557491 O.3       1 <1>        -0.386488 
      9 O          -9.892427    1.052486   -0.219687 O.3       1 <1>        -0.392367 
     10 O          -8.146821   -1.490899    2.568638 O.3       1 <1>        -0.347388 
     11 O          -7.984649   -3.176653   -5.101018 O.3       1 <1>        -0.392366 
     12 O          -3.522745   -0.411197    1.126003 O.3       1 <1>        -0.358595 
     13 O          -5.147084    0.926167    5.593236 O.3       1 <1>        -0.307711 
     14 O          -2.077686    0.924866    2.956113 O.2       1 <1>        -0.287017 
     15 O          -3.900626    4.546880   10.879000 O.3       1 <1>        -0.359832 
     16 C          -6.554253   -3.039757    0.093691 C.3       1 <1>         0.120362 
     17 C          -8.088734   -3.199732    0.240832 C.3       1 <1>         0.112423 
     18 C          -6.074725   -1.582713    0.349091 C.3       1 <1>         0.117636 
     19 C          -8.927159   -1.956669   -0.210553 C.3       1 <1>         0.111754 
     20 C          -8.122167   -0.663622   -0.582532 C.3       1 <1>         0.110816 
     21 C          -5.094990   -3.897479   -1.711071 C.3       1 <1>         0.188449 
     22 C          -5.090950   -5.448078   -1.603651 C.3       1 <1>         0.134125 
     23 C          -6.153913   -6.052741   -2.558024 C.3       1 <1>         0.114061 
     24 C          -5.977219   -5.500253   -3.999778 C.3       1 <1>         0.111896 
     25 C          -5.886953   -3.945652   -3.997979 C.3       1 <1>         0.113005 
     26 C          -5.876622   -0.981656    1.771146 C.ar      1 <1>         0.044172 
     27 C          -8.564408    0.634870    0.148130 C.3       1 <1>         0.072938 
     28 C          -7.256126   -3.213177   -3.857272 C.3       1 <1>         0.073015 
     29 C          -4.548221   -0.368619    2.079004 C.ar      1 <1>         0.094055 
     30 C          -6.881737   -0.943520    2.806274 C.ar      1 <1>         0.086487 
     31 C          -4.328369    0.265350    3.330299 C.ar      1 <1>         0.082300 
     32 C          -6.584171   -0.304469    4.117603 C.ar      1 <1>         0.000072 
     33 C          -5.372661    0.295039    4.365897 C.ar      1 <1>         0.098831 
     34 C          -3.042822    0.952512    3.704019 C.2       1 <1>         0.193519 
     35 C          -3.003599    1.663250    4.987695 C.2       1 <1>         0.016919 
     36 C          -4.032089    1.630824    5.848270 C.2       1 <1>         0.093865 
     37 C          -9.261199   -1.183081    3.437877 C.3       1 <1>         0.043042 
     38 C          -3.985748    2.392664    7.156016 C.ar      1 <1>         0.005751 
     39 C          -4.563064    1.827829    8.302908 C.ar      1 <1>        -0.049682 
     40 C          -3.355386    3.734182    7.244702 C.ar      1 <1>        -0.049682 
     41 C          -4.537748    2.554856    9.594700 C.ar      1 <1>        -0.031304 
     42 C          -3.334795    4.427651    8.463973 C.ar      1 <1>        -0.031304 
     43 C          -3.937641    3.832241    9.678442 C.ar      1 <1>         0.072619 
     44 H          -6.047830   -3.764846    0.752695 H         1 <1>         0.065325 
     45 H          -8.379289   -4.046484   -0.401716 H         1 <1>         0.064693 
     46 H          -5.064099   -1.614388   -0.070108 H         1 <1>         0.067501 
     47 H          -9.599404   -1.708345    0.622206 H         1 <1>         0.064671 
     48 H          -8.344769   -0.446419   -1.640778 H         1 <1>         0.064591 
     49 H          -4.241585   -3.490399   -1.147029 H         1 <1>         0.093753 
     50 H          -5.358637   -5.746912   -0.576536 H         1 <1>         0.067095 
     51 H          -5.988618   -7.144599   -2.583635 H         1 <1>         0.064758 
     52 H          -6.829177   -5.833339   -4.615684 H         1 <1>         0.064673 
     53 H          -5.507654   -3.622440   -4.980643 H         1 <1>         0.064668 
     54 H          -8.474098    0.543969    1.236927 H         1 <1>         0.058369 
     55 H          -7.891332    1.450281   -0.163412 H         1 <1>         0.058369 
     56 H          -8.187807   -3.165669    2.233453 H         1 <1>         0.210004 
     57 H          -7.903010   -3.635042   -3.074421 H         1 <1>         0.058370 
     58 H          -7.047915   -2.163935   -3.592441 H         1 <1>         0.058370 
     59 H         -10.407751   -2.992936   -1.146578 H         1 <1>         0.210004 
     60 H          -3.095563   -5.700904   -1.359294 H         1 <1>         0.210110 
     61 H          -8.168908   -6.228498   -2.531997 H         1 <1>         0.210005 
     62 H          -4.599656   -5.828626   -5.453619 H         1 <1>         0.210004 
     63 H          -7.311296   -0.279825    4.918311 H         1 <1>         0.066965 
     64 H         -10.571730    0.426471    0.007468 H         1 <1>         0.209508 
     65 H          -8.280750   -4.028952   -5.401972 H         1 <1>         0.209508 
     66 H          -2.706592    0.003157    1.395203 H         1 <1>         0.217355 
     67 H          -2.093786    2.216787    5.213916 H         1 <1>         0.068219 
     68 H         -10.177165   -1.608907    3.003827 H         1 <1>         0.052870 
     69 H          -9.405397   -0.096796    3.539976 H         1 <1>         0.052870 
     70 H          -9.128704   -1.640465    4.429158 H         1 <1>         0.052870 
     71 H          -5.031616    0.850305    8.250425 H         1 <1>         0.062503 
     72 H          -2.915255    4.194348    6.366729 H         1 <1>         0.062503 
     73 H          -4.983658    2.096189   10.470061 H         1 <1>         0.064339 
     74 H          -2.879090    5.410511    8.527799 H         1 <1>         0.064339 
     75 H          -4.359063    4.129189   11.599046 H         1 <1>         0.217313 
@<TRIPOS>BOND
     1   16    1 1    
     2    1   21 1    
     3   18    2 1    
     4    2   20 1    
     5   21    3 1    
     6    3   25 1    
     7   17    4 1    
     8    4   56 1    
     9   19    5 1    
    10    5   59 1    
    11   22    6 1    
    12    6   60 1    
    13   23    7 1    
    14    7   61 1    
    15   24    8 1    
    16    8   62 1    
    17   27    9 1    
    18    9   64 1    
    19   30   10 1    
    20   10   37 1    
    21   28   11 1    
    22   11   65 1    
    23   29   12 1    
    24   12   66 1    
    25   13   33 1    
    26   36   13 1    
    27   34   14 2    
    28   43   15 1    
    29   15   75 1    
    30   16   17 1    
    31   18   16 1    
    32   16   44 1    
    33   17   19 1    
    34   17   45 1    
    35   26   18 1    
    36   18   46 1    
    37   20   19 1    
    38   19   47 1    
    39   20   27 1    
    40   20   48 1    
    41   21   22 1    
    42   21   49 1    
    43   22   23 1    
    44   22   50 1    
    45   23   24 1    
    46   23   51 1    
    47   25   24 1    
    48   24   52 1    
    49   25   28 1    
    50   25   53 1    
    51   29   26 1    
    52   30   26 2    
    53   27   54 1    
    54   27   55 1    
    55   28   57 1    
    56   28   58 1    
    57   31   29 2    
    58   32   30 1    
    59   33   31 1    
    60   34   31 1    
    61   33   32 2    
    62   32   63 1    
    63   35   34 1    
    64   36   35 2    
    65   35   67 1    
    66   38   36 1    
    67   37   68 1    
    68   37   69 1    
    69   37   70 1    
    70   39   38 2    
    71   38   40 1    
    72   41   39 1    
    73   39   71 1    
    74   40   42 2    
    75   40   72 1    
    76   41   43 2    
    77   41   73 1    
    78   42   43 1    
    79   42   74 1    
@<TRIPOS>SUBSTRUCTURE
     1 ****        1 TEMP              0 ****  ****    0 ROOT 
@<TRIPOS>NORMAL
@<TRIPOS>FF_PBC
FORCE_FIELD_SETUP_FEATURE Force Field Setup information
v1.0  0 0.000000 0.000000 0.000000 0.000000 0.000000 0.000000 NONE 0 0 0 0 1 0 0 0 0 0 0 0 0
