@<TRIPOS>MOLECULE
MOL007274
   37    39     1     1     0
SMALL
GASTEIGER


@<TRIPOS>ATOM
      1 C          -0.375618    0.484115   -0.000834 C.ar      1 <1>         0.098980 
      2 C           0.083493    1.885588    0.023702 C.ar      1 <1>         0.084491 
      3 O           0.550073   -0.561645   -0.010640 O.3       1 <1>        -0.307709 
      4 C          -1.739544    0.192211   -0.014493 C.ar      1 <1>         0.002263 
      5 C          -0.838986    2.947519    0.033001 C.ar      1 <1>         0.118472 
      6 C           1.578669    2.068982    0.037464 C.2       1 <1>         0.193594 
      7 C           1.882425   -0.378569    0.001467 C.2       1 <1>         0.093865 
      8 C          -2.756366    1.277219   -0.004326 C.ar      1 <1>         0.110695 
      9 C          -2.296807    2.664521    0.018984 C.ar      1 <1>         0.136266 
     10 O          -0.383340    4.266601    0.055735 O.3       1 <1>        -0.356589 
     11 C           2.408520    0.856899    0.024194 C.2       1 <1>         0.016920 
     12 O           2.099730    3.172102    0.058895 O.2       1 <1>        -0.287016 
     13 C           2.719770   -1.646422   -0.012491 C.ar      1 <1>         0.005751 
     14 O          -4.127280    0.982330   -0.016509 O.3       1 <1>        -0.345170 
     15 O          -3.171616    3.764162    0.029595 O.3       1 <1>        -0.342940 
     16 C           2.001736   -2.947916   -0.048013 C.ar      1 <1>        -0.049682 
     17 C           4.160135   -1.678759    0.006472 C.ar      1 <1>        -0.049682 
     18 C          -4.620043   -0.366961   -0.000347 C.3       1 <1>         0.043138 
     19 C          -4.600790    3.623372    0.023492 C.3       1 <1>         0.043243 
     20 C           2.700497   -4.169564   -0.062921 C.ar      1 <1>        -0.031304 
     21 C           4.889930   -2.969608   -0.009790 C.ar      1 <1>        -0.031304 
     22 C           4.179470   -4.194789   -0.043779 C.ar      1 <1>         0.072619 
     23 O           4.841788   -5.425066   -0.059657 O.3       1 <1>        -0.359832 
     24 H          -2.028458   -0.850472   -0.032798 H         1 <1>         0.067039 
     25 H          -1.107724    4.884852    0.060176 H         1 <1>         0.217446 
     26 H           3.475472    1.056406    0.034227 H         1 <1>         0.068219 
     27 H           0.917070   -2.971092   -0.063021 H         1 <1>         0.062503 
     28 H           4.753002   -0.774966    0.033076 H         1 <1>         0.062503 
     29 H          -5.719038   -0.320248    0.000446 H         1 <1>         0.052871 
     30 H          -4.295528   -0.895943    0.908968 H         1 <1>         0.052871 
     31 H          -4.298893   -0.918173   -0.897464 H         1 <1>         0.052871 
     32 H          -5.034292    4.633960    0.037016 H         1 <1>         0.052872 
     33 H          -4.945906    3.114465   -0.889433 H         1 <1>         0.052872 
     34 H          -4.950840    3.088000    0.919257 H         1 <1>         0.052872 
     35 H           2.157138   -5.108233   -0.088751 H         1 <1>         0.064339 
     36 H           5.974734   -2.964583    0.004659 H         1 <1>         0.064339 
     37 H           5.789888   -5.359745   -0.046355 H         1 <1>         0.217313 
@<TRIPOS>BOND
     1    1    2 1    
     2    1    3 1    
     3    1    4 2    
     4    2    5 2    
     5    2    6 1    
     6    3    7 1    
     7    4    8 1    
     8    4   24 1    
     9    5    9 1    
    10    5   10 1    
    11    6   11 1    
    12    6   12 2    
    13    7   11 2    
    14    7   13 1    
    15    8    9 2    
    16    8   14 1    
    17    9   15 1    
    18   10   25 1    
    19   11   26 1    
    20   13   16 1    
    21   13   17 2    
    22   14   18 1    
    23   15   19 1    
    24   16   20 2    
    25   16   27 1    
    26   17   21 1    
    27   17   28 1    
    28   18   29 1    
    29   18   30 1    
    30   18   31 1    
    31   19   32 1    
    32   19   33 1    
    33   19   34 1    
    34   20   22 1    
    35   20   35 1    
    36   21   22 2    
    37   21   36 1    
    38   22   23 1    
    39   23   37 1    
@<TRIPOS>SUBSTRUCTURE
     1 ****        1 TEMP              0 ****  ****    0 ROOT 
@<TRIPOS>NORMAL
@<TRIPOS>FF_PBC
FORCE_FIELD_SETUP_FEATURE Force Field Setup information
v1.0  0 0.000000 0.000000 0.000000 0.000000 0.000000 0.000000 NONE 0 0 0 0 1 0 0 0 0 0 0 0 0
