@<TRIPOS>MOLECULE
MOL004646
   42    44     1     1     0
SMALL
GASTEIGER


@<TRIPOS>ATOM
      1 C          -3.268241    2.429609   -0.125655 C.ar      1 <1>         0.140609 
      2 C          -2.736586    3.790679    0.128779 C.ar      1 <1>         0.136130 
      3 C          -1.406074    3.996518    0.303320 C.ar      1 <1>         0.118414 
      4 C          -0.470749    2.849349    0.238310 C.ar      1 <1>         0.087032 
      5 C          -0.912461    1.573326    0.012364 C.ar      1 <1>         0.128905 
      6 C          -2.371342    1.322098   -0.183805 C.ar      1 <1>         0.139617 
      7 C           1.013383    3.048717    0.417327 C.2       1 <1>         0.193680 
      8 C           1.873832    1.870545    0.304685 C.2       1 <1>         0.016923 
      9 C           1.336174    0.666523    0.074966 C.2       1 <1>         0.094054 
     10 O           0.006328    0.512791   -0.037959 O.3       1 <1>        -0.305122 
     11 C           2.199387   -0.571716   -0.059459 C.ar      1 <1>         0.008193 
     12 C           1.658879   -1.870591    0.408679 C.ar      1 <1>        -0.019523 
     13 C           2.371591   -3.029875    0.314781 C.ar      1 <1>         0.106040 
     14 C           3.744670   -2.997058   -0.268498 C.ar      1 <1>         0.102473 
     15 C           4.254274   -1.785688   -0.705911 C.ar      1 <1>        -0.028762 
     16 C           3.455871   -0.541377   -0.604065 C.ar      1 <1>        -0.049519 
     17 O           4.508457   -4.166478   -0.373020 O.3       1 <1>        -0.357268 
     18 O           1.767327   -4.208564    0.780201 O.3       1 <1>        -0.345330 
     19 C           2.415437   -5.487571    0.711584 C.3       1 <1>         0.043136 
     20 O          -2.875634    0.033940   -0.424587 O.3       1 <1>        -0.342862 
     21 C          -2.110516   -1.165069   -0.238333 C.3       1 <1>         0.043244 
     22 O          -4.658470    2.307244   -0.297806 O.3       1 <1>        -0.342833 
     23 C          -5.326989    1.059686   -0.542840 C.3       1 <1>         0.043244 
     24 O          -3.606783    4.882743    0.191996 O.3       1 <1>        -0.355312 
     25 O          -0.914426    5.282874    0.543283 O.3       1 <1>        -0.356593 
     26 O           1.504469    4.141640    0.645884 O.2       1 <1>        -0.287015 
     27 H           2.944687    2.024792    0.424106 H         1 <1>         0.068219 
     28 H           0.667878   -1.907850    0.843308 H         1 <1>         0.065082 
     29 H           5.249977   -1.729059   -1.132989 H         1 <1>         0.064422 
     30 H           3.883965    0.382551   -0.976084 H         1 <1>         0.062505 
     31 H           5.379686   -4.051997   -0.735625 H         1 <1>         0.217422 
     32 H           1.723685   -6.234051    1.128258 H         1 <1>         0.052871 
     33 H           3.335697   -5.498016    1.315079 H         1 <1>         0.052871 
     34 H           2.633894   -5.764912   -0.330922 H         1 <1>         0.052871 
     35 H          -2.789645   -2.017587   -0.384821 H         1 <1>         0.052872 
     36 H          -1.712522   -1.210736    0.786205 H         1 <1>         0.052872 
     37 H          -1.300587   -1.248834   -0.978112 H         1 <1>         0.052872 
     38 H          -6.402276    1.272745   -0.630200 H         1 <1>         0.052872 
     39 H          -4.990752    0.605996   -1.487656 H         1 <1>         0.052872 
     40 H          -5.183986    0.359789    0.294593 H         1 <1>         0.052872 
     41 H          -4.509984    4.613293    0.052033 H         1 <1>         0.217503 
     42 H          -1.603025    5.941173    0.565506 H         1 <1>         0.217446 
@<TRIPOS>BOND
     1    1    2 1    
     2    1    6 2    
     3    1   22 1    
     4    2    3 2    
     5    2   24 1    
     6    3    4 1    
     7    3   25 1    
     8    4    5 2    
     9    4    7 1    
    10    5    6 1    
    11    5   10 1    
    12    6   20 1    
    13    7    8 1    
    14    7   26 2    
    15    8    9 2    
    16    8   27 1    
    17    9   10 1    
    18    9   11 1    
    19   11   12 1    
    20   11   16 2    
    21   12   13 2    
    22   12   28 1    
    23   13   14 1    
    24   13   18 1    
    25   14   15 2    
    26   14   17 1    
    27   15   16 1    
    28   15   29 1    
    29   16   30 1    
    30   17   31 1    
    31   18   19 1    
    32   19   32 1    
    33   19   33 1    
    34   19   34 1    
    35   20   21 1    
    36   21   35 1    
    37   21   36 1    
    38   21   37 1    
    39   22   23 1    
    40   23   38 1    
    41   23   39 1    
    42   23   40 1    
    43   24   41 1    
    44   25   42 1    
@<TRIPOS>SUBSTRUCTURE
     1 ****        1 TEMP              0 ****  ****    0 ROOT 
@<TRIPOS>NORMAL
@<TRIPOS>FF_PBC
FORCE_FIELD_SETUP_FEATURE Force Field Setup information
v1.0  0 0.000000 0.000000 0.000000 0.000000 0.000000 0.000000 NONE 0 0 0 0 1 0 0 0 0 0 0 0 0
