@<TRIPOS>MOLECULE
MOL004076
   39    41     1     1     0
SMALL
GASTEIGER


@<TRIPOS>ATOM
      1 O           0.494920   -2.772100   -0.031902 O.3       1 <1>        -0.387170 
      2 O          -3.619390    0.896496   -0.491333 O.2       1 <1>        -0.292374 
      3 C          -0.158867    0.715627   -0.065276 C.3       1 <1>         0.009797 
      4 C           0.956753    0.774321    1.023184 C.3       1 <1>        -0.019354 
      5 C           1.561669   -0.656525    0.823127 C.3       1 <1>        -0.005112 
      6 C           0.398223    0.669740   -1.532301 C.3       1 <1>        -0.033515 
      7 C          -0.704233   -0.629887    0.306180 C.2       1 <1>        -0.027641 
      8 C           0.326344   -1.610164    0.794959 C.3       1 <1>         0.080751 
      9 C           2.346382   -0.755172   -0.516041 C.3       1 <1>        -0.046773 
     10 C          -1.398432    1.648952    0.070268 C.3       1 <1>         0.020308 
     11 C           1.428270   -0.482536   -1.740586 C.3       1 <1>        -0.049278 
     12 C           0.404409    0.902729    2.486450 C.3       1 <1>        -0.058649 
     13 C           1.963126    1.954416    0.839333 C.3       1 <1>        -0.058649 
     14 C          -2.029432   -0.726715    0.205722 C.2       1 <1>        -0.005794 
     15 C          -2.487653    0.627173   -0.120475 C.2       1 <1>         0.159879 
     16 C          -0.700588    0.516715   -2.630934 C.3       1 <1>        -0.061590 
     17 C          -2.893077   -1.934365    0.446817 C.3       1 <1>        -0.036348 
     18 H           2.252610   -0.926012    1.639889 H         1 <1>         0.033436 
     19 H           0.885676    1.634713   -1.739864 H         1 <1>         0.030682 
     20 H           0.068395   -1.926513    1.819384 H         1 <1>         0.064349 
     21 H           2.773084   -1.767957   -0.611092 H         1 <1>         0.026910 
     22 H           3.208732   -0.073635   -0.513299 H         1 <1>         0.026910 
     23 H          -1.409718    2.473943   -0.655661 H         1 <1>         0.035379 
     24 H          -1.535537    2.077000    1.069686 H         1 <1>         0.035379 
     25 H           2.054313   -0.272779   -2.625468 H         1 <1>         0.026822 
     26 H           0.873085   -1.406024   -1.968377 H         1 <1>         0.026822 
     27 H          -0.456052    0.253194    2.697063 H         1 <1>         0.023535 
     28 H           0.095642    1.932644    2.718459 H         1 <1>         0.023535 
     29 H           1.198285    0.645560    3.203300 H         1 <1>         0.023535 
     30 H           1.435741    2.911904    0.969571 H         1 <1>         0.023535 
     31 H           2.457307    2.005555   -0.137544 H         1 <1>         0.023535 
     32 H           2.754130    1.884771    1.602350 H         1 <1>         0.023535 
     33 H          -0.224051    0.430846   -3.620547 H         1 <1>         0.023268 
     34 H          -1.300757   -0.390839   -2.464742 H         1 <1>         0.023268 
     35 H          -1.383408    1.375906   -2.680794 H         1 <1>         0.023268 
     36 H          -0.292529   -3.301808   -0.089907 H         1 <1>         0.210231 
     37 H          -3.021279   -2.493610   -0.491770 H         1 <1>         0.027859 
     38 H          -3.880869   -1.610824    0.808243 H         1 <1>         0.027859 
     39 H          -2.442628   -2.594938    1.202726 H         1 <1>         0.027859 
@<TRIPOS>BOND
     1    8    1 1    
     2    1   36 1    
     3   15    2 2    
     4    3    4 1    
     5    3    6 1    
     6    3    7 1    
     7   10    3 1    
     8    4    5 1    
     9    4   12 1    
    10    4   13 1    
    11    8    5 1    
    12    5    9 1    
    13    5   18 1    
    14    6   11 1    
    15    6   16 1    
    16    6   19 1    
    17    7    8 1    
    18    7   14 2    
    19    8   20 1    
    20   11    9 1    
    21    9   21 1    
    22    9   22 1    
    23   10   15 1    
    24   10   23 1    
    25   10   24 1    
    26   11   25 1    
    27   11   26 1    
    28   12   27 1    
    29   12   28 1    
    30   12   29 1    
    31   13   30 1    
    32   13   31 1    
    33   13   32 1    
    34   14   15 1    
    35   14   17 1    
    36   16   33 1    
    37   16   34 1    
    38   16   35 1    
    39   17   37 1    
    40   17   38 1    
    41   17   39 1    
@<TRIPOS>SUBSTRUCTURE
     1 ****        3 TEMP              0 ****  ****    0 ROOT 
@<TRIPOS>NORMAL
@<TRIPOS>FF_PBC
FORCE_FIELD_SETUP_FEATURE Force Field Setup information
v1.0  0 0.000000 0.000000 0.000000 0.000000 0.000000 0.000000 NONE 0 0 0 0 1 0 0 0 0 0 0 0 0
