@<TRIPOS>MOLECULE
MOL004884
   42    45     1     1     0
SMALL
GASTEIGER


@<TRIPOS>ATOM
      1 C          -2.134460   -1.576260   -0.463457 C.2       1 <1>         0.058337 
      2 C          -1.531995   -0.383692   -0.566070 C.2       1 <1>         0.055124 
      3 C          -2.291604    0.866899   -0.675169 C.2       1 <1>         0.200654 
      4 C          -3.795673    0.752228   -0.637276 C.ar      1 <1>         0.082517 
      5 C          -4.336988   -0.616189   -0.532955 C.ar      1 <1>         0.098059 
      6 O          -3.473373   -1.715262   -0.457348 O.3       1 <1>        -0.315267 
      7 C          -5.724957   -0.812176   -0.510905 C.ar      1 <1>        -0.000556 
      8 C          -6.640934    0.357463   -0.599110 C.ar      1 <1>         0.077519 
      9 C          -6.109645    1.648944   -0.684666 C.ar      1 <1>        -0.001302 
     10 C          -4.642193    1.863910   -0.694296 C.ar      1 <1>         0.088332 
     11 O          -1.726473    1.943042   -0.782077 O.2       1 <1>        -0.286388 
     12 C           4.972458   -0.241883    0.691370 C.3       1 <1>         0.088837 
     13 C           4.210411   -0.485982    1.980168 C.2       1 <1>        -0.051917 
     14 C           2.874314   -0.523648    2.040865 C.2       1 <1>        -0.050884 
     15 C           2.081740   -0.317708    0.776457 C.ar      1 <1>         0.035079 
     16 C           2.830144    0.053371   -0.443347 C.ar      1 <1>         0.086895 
     17 O           4.189173    0.344727   -0.363177 O.3       1 <1>        -0.334125 
     18 C           2.162052    0.152144   -1.666834 C.ar      1 <1>        -0.030321 
     19 C           0.694088   -0.031542   -1.729254 C.ar      1 <1>        -0.048913 
     20 C          -0.025029   -0.287985   -0.555550 C.ar      1 <1>         0.018167 
     21 C           0.684325   -0.462756    0.733299 C.ar      1 <1>         0.090019 
     22 C           6.104247    0.777284    0.991587 C.3       1 <1>        -0.031936 
     23 C           5.539993   -1.593428    0.187263 C.3       1 <1>        -0.031936 
     24 O          -0.034410   -0.775243    1.887077 O.3       1 <1>        -0.358551 
     25 O          -8.028203    0.192761   -0.601720 O.3       1 <1>        -0.359667 
     26 O          -4.102611    3.148578   -0.762976 O.3       1 <1>        -0.358955 
     27 H          -1.527232   -2.478282   -0.379655 H         1 <1>         0.089750 
     28 H          -6.124608   -1.818240   -0.431277 H         1 <1>         0.066947 
     29 H          -6.788946    2.489624   -0.752622 H         1 <1>         0.066923 
     30 H           4.776193   -0.660551    2.892652 H         1 <1>         0.060053 
     31 H           2.357997   -0.709277    2.984271 H         1 <1>         0.062283 
     32 H           2.717213    0.392357   -2.564591 H         1 <1>         0.064367 
     33 H           0.176550    0.049334   -2.679676 H         1 <1>         0.062524 
     34 H           5.659718    1.721608    1.347956 H         1 <1>         0.026052 
     35 H           6.779139    0.379100    1.765334 H         1 <1>         0.026052 
     36 H           6.690701    0.989427    0.084803 H         1 <1>         0.026052 
     37 H           4.715669   -2.288636   -0.043851 H         1 <1>         0.026052 
     38 H           6.139538   -1.441776   -0.724613 H         1 <1>         0.026052 
     39 H           6.184477   -2.042531    0.959601 H         1 <1>         0.026052 
     40 H          -0.438105    0.009667    2.250355 H         1 <1>         0.217364 
     41 H          -8.320925   -0.714770   -0.593561 H         1 <1>         0.217316 
     42 H          -4.741977    3.845949   -0.677125 H         1 <1>         0.217342 
@<TRIPOS>BOND
     1    2    1 2    
     2    1    6 1    
     3    1   27 1    
     4    2    3 1    
     5   20    2 1    
     6    3    4 1    
     7    3   11 2    
     8    4    5 1    
     9    4   10 2    
    10    6    5 1    
    11    5    7 2    
    12    7    8 1    
    13    7   28 1    
    14    9    8 2    
    15    8   25 1    
    16   10    9 1    
    17    9   29 1    
    18   10   26 1    
    19   12   13 1    
    20   17   12 1    
    21   12   22 1    
    22   12   23 1    
    23   14   13 2    
    24   13   30 1    
    25   15   14 1    
    26   14   31 1    
    27   16   15 1    
    28   15   21 2    
    29   16   17 1    
    30   18   16 2    
    31   19   18 1    
    32   18   32 1    
    33   19   20 2    
    34   19   33 1    
    35   20   21 1    
    36   21   24 1    
    37   22   34 1    
    38   22   35 1    
    39   22   36 1    
    40   23   37 1    
    41   23   38 1    
    42   23   39 1    
    43   24   40 1    
    44   25   41 1    
    45   26   42 1    
@<TRIPOS>SUBSTRUCTURE
     1 ****       12 TEMP              0 ****  ****    0 ROOT 
@<TRIPOS>NORMAL
@<TRIPOS>FF_PBC
FORCE_FIELD_SETUP_FEATURE Force Field Setup information
v1.0  0 0.000000 0.000000 0.000000 0.000000 0.000000 0.000000 NONE 0 0 0 0 1 0 0 0 0 0 0 0 0
