@<TRIPOS>MOLECULE
MOL002379
   16    15     1     1     0
SMALL
GASTEIGER


@<TRIPOS>ATOM
      1 C          -0.101965   -0.362544    0.000114 C.3       1 <1>        -0.046890 
      2 C          -1.505643    0.300646   -0.000149 C.3       1 <1>         0.002769 
      3 C           1.027656    0.703125   -0.000113 C.3       1 <1>        -0.055536 
      4 C          -2.613860   -0.720349    0.000010 C.2       1 <1>         0.120308 
      5 C           2.428905    0.038282    0.000117 C.3       1 <1>        -0.065266 
      6 O          -3.777164   -0.352178    0.000154 O.2       1 <1>        -0.301035 
      7 H          -0.002625   -1.000032    0.894391 H         1 <1>         0.026910 
      8 H          -0.002518   -1.000501   -0.893840 H         1 <1>         0.026910 
      9 H          -1.619380    0.934526   -0.893945 H         1 <1>         0.033871 
     10 H          -1.619494    0.934972    0.893276 H         1 <1>         0.033871 
     11 H           0.932589    1.342390   -0.893848 H         1 <1>         0.026275 
     12 H           0.932505    1.342848    0.893282 H         1 <1>         0.026275 
     13 H          -2.406039   -1.790324    0.000001 H         1 <1>         0.102608 
     14 H           3.214779    0.810176   -0.000041 H         1 <1>         0.022978 
     15 H           2.556188   -0.590282    0.895291 H         1 <1>         0.022978 
     16 H           2.556265   -0.590756   -0.894699 H         1 <1>         0.022978 
@<TRIPOS>BOND
     1    1    2 1    
     2    1    3 1    
     3    1    7 1    
     4    1    8 1    
     5    2    4 1    
     6    2    9 1    
     7    2   10 1    
     8    3    5 1    
     9    3   11 1    
    10    3   12 1    
    11    4    6 2    
    12    4   13 1    
    13    5   14 1    
    14    5   15 1    
    15    5   16 1    
@<TRIPOS>SUBSTRUCTURE
     1 ****        1 TEMP              0 ****  ****    0 ROOT 
@<TRIPOS>NORMAL
@<TRIPOS>FF_PBC
FORCE_FIELD_SETUP_FEATURE Force Field Setup information
v1.0  0 0.000000 0.000000 0.000000 0.000000 0.000000 0.000000 NONE 0 0 0 0 1 0 0 0 0 0 0 0 0
