@<TRIPOS>MOLECULE
MOL013433
   38    40     1     1     0
SMALL
GASTEIGER


@<TRIPOS>ATOM
      1 C          -0.056630   -0.947819   -0.574415 C.ar      1 <1>         0.213159 
      2 C          -1.403203   -1.393156   -0.439229 C.ar      1 <1>         0.132773 
      3 C           1.015049   -1.973621   -0.675840 C.ar      1 <1>         0.394928 
      4 O           0.217257    0.429852   -0.609973 O.3       1 <1>        -0.332084 
      5 C          -1.714824   -2.846263   -0.390715 C.ar      1 <1>         0.009489 
      6 O          -2.433577   -0.453284   -0.353536 O.3       1 <1>        -0.270853 
      7 C           0.701192   -3.300190   -0.634564 C.ar      1 <1>         0.090557 
      8 O           2.388788   -1.762641   -0.817345 O.2       1 <1>        -0.209540 
      9 C           1.545712    0.921673   -0.357065 C.3       1 <1>         0.083234 
     10 C          -0.678910   -3.808867   -0.486385 C.ar      1 <1>        -0.035520 
     11 C          -3.160958   -3.256027   -0.237037 C.2       1 <1>        -0.046335 
     12 C          -3.706856   -0.855847   -0.227649 C.2       1 <1>         0.291658 
     13 C           1.968817   -4.027344   -0.766039 C.ar      1 <1>         0.050798 
     14 C           2.923769   -3.053609   -0.869541 C.ar      1 <1>         0.322759 
     15 C           1.626225    2.472279   -0.325963 C.3       1 <1>         0.107000 
     16 C          -4.076512   -2.286503   -0.164806 C.2       1 <1>         0.010954 
     17 O          -4.583648   -0.010179   -0.161004 O.2       1 <1>        -0.259478 
     18 C           0.663816    3.200612    0.667012 C.3       1 <1>         0.088414 
     19 O           2.989009    2.801192    0.012606 O.3       1 <1>        -0.386667 
     20 C          -0.800434    3.229221    0.149120 C.3       1 <1>        -0.033823 
     21 C           0.726287    2.582445    2.090936 C.3       1 <1>        -0.033823 
     22 O           1.162356    4.553817    0.727396 O.3       1 <1>        -0.386490 
     23 H           1.918566    0.526624    0.600330 H         1 <1>         0.059172 
     24 H           2.219900    0.600028   -1.165187 H         1 <1>         0.059172 
     25 H          -0.884531   -4.874130   -0.454178 H         1 <1>         0.063314 
     26 H          -3.439995   -4.309803   -0.187237 H         1 <1>         0.062607 
     27 H           2.114993   -5.101365   -0.779727 H         1 <1>         0.071340 
     28 H           3.985154   -3.261503   -0.979424 H         1 <1>         0.176011 
     29 H           1.414026    2.854269   -1.340748 H         1 <1>         0.064499 
     30 H          -5.130468   -2.541629   -0.055256 H         1 <1>         0.067748 
     31 H           3.103179    3.746340    0.086415 H         1 <1>         0.210001 
     32 H          -1.437507    3.797341    0.840958 H         1 <1>         0.025797 
     33 H          -0.843564    3.713070   -0.837018 H         1 <1>         0.025797 
     34 H          -1.215244    2.218071    0.064752 H         1 <1>         0.025797 
     35 H           0.162044    3.204873    2.802888 H         1 <1>         0.025797 
     36 H           1.769847    2.521625    2.437525 H         1 <1>         0.025797 
     37 H           0.283546    1.575025    2.093885 H         1 <1>         0.025797 
     38 H           0.667330    5.114923    1.315359 H         1 <1>         0.210248 
@<TRIPOS>BOND
     1    1    2 2    
     2    1    3 1    
     3    1    4 1    
     4    2    5 1    
     5    2    6 1    
     6    3    7 2    
     7    3    8 1    
     8    4    9 1    
     9    5   10 2    
    10    5   11 1    
    11    6   12 1    
    12    7   10 1    
    13    7   13 1    
    14    8   14 1    
    15    9   15 1    
    16    9   23 1    
    17    9   24 1    
    18   10   25 1    
    19   11   16 2    
    20   11   26 1    
    21   12   16 1    
    22   12   17 2    
    23   13   14 2    
    24   13   27 1    
    25   14   28 1    
    26   15   18 1    
    27   15   19 1    
    28   15   29 1    
    29   16   30 1    
    30   18   20 1    
    31   18   21 1    
    32   18   22 1    
    33   19   31 1    
    34   20   32 1    
    35   20   33 1    
    36   20   34 1    
    37   21   35 1    
    38   21   36 1    
    39   21   37 1    
    40   22   38 1    
@<TRIPOS>SUBSTRUCTURE
     1 ****        1 TEMP              0 ****  ****    0 ROOT 
@<TRIPOS>NORMAL
@<TRIPOS>FF_PBC
FORCE_FIELD_SETUP_FEATURE Force Field Setup information
v1.0  0 0.000000 0.000000 0.000000 0.000000 0.000000 0.000000 NONE 0 0 0 0 1 0 0 0 0 0 0 0 0
