@<TRIPOS>MOLECULE
MOL010206
   56    55     1     1     0
SMALL
GASTEIGER


@<TRIPOS>ATOM
      1 C           4.227313    8.459878   -0.081368 C.2       1 <1>         0.261905 
      2 C           2.934295    7.684101   -0.080466 C.3       1 <1>         0.033189 
      3 O           5.354900    7.732557   -0.082349 O.3       1 <1>        -0.318522 
      4 O           4.219955    9.681304   -0.081695 O.2       1 <1>        -0.264985 
      5 C           3.138828    6.144584   -0.085570 C.3       1 <1>        -0.044055 
      6 C           6.560591    8.521600   -0.087245 C.3       1 <1>         0.045865 
      7 C           1.781986    5.388739   -0.095206 C.3       1 <1>        -0.052596 
      8 C           1.998466    3.850964   -0.103850 C.3       1 <1>        -0.053045 
      9 C           0.646137    3.087402   -0.122739 C.3       1 <1>        -0.053057 
     10 C           0.871932    1.551270   -0.121068 C.3       1 <1>        -0.053057 
     11 C          -0.474398    0.777384   -0.142643 C.3       1 <1>        -0.053057 
     12 C          -0.234092   -0.756651   -0.115661 C.3       1 <1>        -0.053057 
     13 C          -1.570296   -1.547975   -0.129783 C.3       1 <1>        -0.053057 
     14 C          -1.310937   -3.078139   -0.069421 C.3       1 <1>        -0.053057 
     15 C          -2.639397   -3.882726   -0.067341 C.3       1 <1>        -0.053049 
     16 C          -2.370472   -5.412004    0.004031 C.3       1 <1>        -0.052824 
     17 C          -3.697669   -6.221241    0.021871 C.3       1 <1>        -0.050709 
     18 C          -3.493213   -7.764822   -0.056565 C.3       1 <1>        -0.046721 
     19 C          -2.690149   -8.320843    1.152842 C.3       1 <1>        -0.062665 
     20 C          -4.873895   -8.475408   -0.136510 C.3       1 <1>        -0.062665 
     21 H           2.363453    7.978353    0.813975 H         1 <1>         0.036606 
     22 H           2.361804    7.983298   -0.972154 H         1 <1>         0.036606 
     23 H           3.720137    5.861105   -0.978783 H         1 <1>         0.027004 
     24 H           3.713453    5.854225    0.809731 H         1 <1>         0.027004 
     25 H           7.416170    7.829661   -0.087841 H         1 <1>         0.052962 
     26 H           6.622812    9.151901   -0.988737 H         1 <1>         0.052962 
     27 H           6.627491    9.156293    0.810790 H         1 <1>         0.052962 
     28 H           1.199955    5.670641    0.797779 H         1 <1>         0.026540 
     29 H           1.206768    5.680243   -0.989485 H         1 <1>         0.026540 
     30 H           2.586775    3.570474   -0.993247 H         1 <1>         0.026529 
     31 H           2.569380    3.559876    0.793420 H         1 <1>         0.026529 
     32 H           0.054557    3.368784    0.764043 H         1 <1>         0.026528 
     33 H           0.077159    3.371634   -1.023365 H         1 <1>         0.026528 
     34 H           1.467216    1.269091   -1.005024 H         1 <1>         0.026528 
     35 H           1.439504    1.269591    0.781250 H         1 <1>         0.026528 
     36 H          -1.076320    1.068550    0.733940 H         1 <1>         0.026528 
     37 H          -1.036878    1.045057   -1.052270 H         1 <1>         0.026528 
     38 H           0.369818   -1.046550   -0.991386 H         1 <1>         0.026528 
     39 H           0.330986   -1.016361    0.794660 H         1 <1>         0.026528 
     40 H          -2.181752   -1.247611    0.736810 H         1 <1>         0.026528 
     41 H          -2.129927   -1.305287   -1.048069 H         1 <1>         0.026528 
     42 H          -0.702799   -3.379278   -0.938424 H         1 <1>         0.026528 
     43 H          -0.743730   -3.313479    0.846306 H         1 <1>         0.026528 
     44 H          -3.248713   -3.579272    0.800466 H         1 <1>         0.026529 
     45 H          -3.204516   -3.649379   -0.984666 H         1 <1>         0.026529 
     46 H          -1.766849   -5.717319   -0.866416 H         1 <1>         0.026537 
     47 H          -1.792523   -5.614876    0.919174 H         1 <1>         0.026537 
     48 H          -4.262488   -5.970837    0.934565 H         1 <1>         0.026777 
     49 H          -4.300421   -5.908263   -0.846609 H         1 <1>         0.026777 
     50 H          -2.937196   -8.001491   -0.980735 H         1 <1>         0.029548 
     51 H          -2.648036   -9.420261    1.111229 H         1 <1>         0.023233 
     52 H          -1.653817   -7.953107    1.151127 H         1 <1>         0.023233 
     53 H          -3.170200   -8.026528    2.098537 H         1 <1>         0.023233 
     54 H          -4.745109   -9.564177   -0.239026 H         1 <1>         0.023233 
     55 H          -5.446153   -8.116698   -1.005981 H         1 <1>         0.023233 
     56 H          -5.459897   -8.277977    0.774052 H         1 <1>         0.023233 
@<TRIPOS>BOND
     1    1    2 1    
     2    1    3 1    
     3    1    4 2    
     4    2    5 1    
     5    2   21 1    
     6    2   22 1    
     7    3    6 1    
     8    5    7 1    
     9    5   23 1    
    10    5   24 1    
    11    6   25 1    
    12    6   26 1    
    13    6   27 1    
    14    7    8 1    
    15    7   28 1    
    16    7   29 1    
    17    8    9 1    
    18    8   30 1    
    19    8   31 1    
    20    9   10 1    
    21    9   32 1    
    22    9   33 1    
    23   10   11 1    
    24   10   34 1    
    25   10   35 1    
    26   11   12 1    
    27   11   36 1    
    28   11   37 1    
    29   12   13 1    
    30   12   38 1    
    31   12   39 1    
    32   13   14 1    
    33   13   40 1    
    34   13   41 1    
    35   14   15 1    
    36   14   42 1    
    37   14   43 1    
    38   15   16 1    
    39   15   44 1    
    40   15   45 1    
    41   16   17 1    
    42   16   46 1    
    43   16   47 1    
    44   17   18 1    
    45   17   48 1    
    46   17   49 1    
    47   18   19 1    
    48   18   20 1    
    49   18   50 1    
    50   19   51 1    
    51   19   52 1    
    52   19   53 1    
    53   20   54 1    
    54   20   55 1    
    55   20   56 1    
@<TRIPOS>SUBSTRUCTURE
     1 ****        1 TEMP              0 ****  ****    0 ROOT 
@<TRIPOS>NORMAL
@<TRIPOS>FF_PBC
FORCE_FIELD_SETUP_FEATURE Force Field Setup information
v1.0  0 0.000000 0.000000 0.000000 0.000000 0.000000 0.000000 NONE 0 0 0 0 1 0 0 0 0 0 0 0 0
