@<TRIPOS>MOLECULE
MOL002102
   56    60     1     1     0
SMALL
GASTEIGER


@<TRIPOS>ATOM
      1 O          -1.862246   -0.929074   -2.653498 O.3       1 <1>        -0.277953 
      2 C          -1.215012    0.244746   -2.476071 C.2       1 <1>         0.071089 
      3 C           0.305718    0.115156   -2.352558 C.3       1 <1>         0.054924 
      4 C           0.430949   -1.334623   -2.670488 C.2       1 <1>         0.033767 
      5 C          -0.916386   -1.845918   -2.776309 C.2       1 <1>         0.295128 
      6 O          -1.304883   -0.238164    1.993317 O.3       1 <1>        -0.274202 
      7 C          -0.116867   -0.721668    2.357165 C.2       1 <1>         0.086162 
      8 C           0.931561   -0.636381    1.330068 C.2       1 <1>        -0.007914 
      9 C           0.363071   -0.029129    0.292796 C.2       1 <1>         0.034619 
     10 C          -1.013506    0.197167    0.764709 C.2       1 <1>         0.295407 
     11 C           1.644033   -1.869506   -2.808322 C.2       1 <1>        -0.070822 
     12 C           2.741627   -0.872838   -2.541308 C.3       1 <1>        -0.018680 
     13 C           2.483766   -0.359550   -1.091243 C.3       1 <1>        -0.026263 
     14 C           2.676048   -1.543385   -0.093509 C.3       1 <1>        -0.045000 
     15 C           2.354446   -1.111568    1.355418 C.3       1 <1>        -0.024491 
     16 C           1.066342    0.324591   -1.001629 C.3       1 <1>         0.009211 
     17 C           1.081003    0.808202   -3.512077 C.3       1 <1>        -0.036153 
     18 C           2.559413    0.305796   -3.537485 C.3       1 <1>        -0.045285 
     19 O          -1.165103   -3.024456   -2.967095 O.2       1 <1>        -0.259166 
     20 O          -1.865830    0.761803    0.105035 O.2       1 <1>        -0.259157 
     21 C           0.057183   -1.221984    3.587532 C.2       1 <1>        -0.053070 
     22 C          -1.039918   -1.299140    4.624754 C.3       1 <1>        -0.032278 
     23 C          -1.095811   -2.718452    5.250629 C.3       1 <1>        -0.052380 
     24 C          -2.217512   -2.822188    6.316500 C.3       1 <1>        -0.064997 
     25 C          -1.926733    1.381161   -2.456623 C.2       1 <1>        -0.056602 
     26 C          -1.398433    2.784670   -2.273505 C.3       1 <1>        -0.032570 
     27 C          -2.380497    3.659032   -1.446867 C.3       1 <1>        -0.052389 
     28 C          -1.819568    5.089324   -1.232439 C.3       1 <1>        -0.064997 
     29 H           3.741509   -1.328111   -2.640443 H         1 <1>         0.034599 
     30 H           3.264834    0.380932   -0.842069 H         1 <1>         0.031272 
     31 H           1.226795    1.408148   -0.900875 H         1 <1>         0.036609 
     32 H           1.811589   -2.914542   -3.068519 H         1 <1>         0.057969 
     33 H           3.715071   -1.911000   -0.139713 H         1 <1>         0.027143 
     34 H           2.010331   -2.385505   -0.343584 H         1 <1>         0.027143 
     35 H           2.482398   -1.970891    2.031677 H         1 <1>         0.031417 
     36 H           3.013929   -0.292969    1.683191 H         1 <1>         0.031417 
     37 H           1.058568    1.903406   -3.411503 H         1 <1>         0.027795 
     38 H           0.580979    0.560482   -4.464723 H         1 <1>         0.027795 
     39 H           2.829838   -0.030217   -4.552970 H         1 <1>         0.027135 
     40 H           3.254317    1.115797   -3.259989 H         1 <1>         0.027135 
     41 H           1.037315   -1.591401    3.883607 H         1 <1>         0.059779 
     42 H          -2.024986   -1.057607    4.193754 H         1 <1>         0.030812 
     43 H          -0.821954   -0.558765    5.411309 H         1 <1>         0.030812 
     44 H          -0.127976   -2.950883    5.726756 H         1 <1>         0.026559 
     45 H          -1.276758   -3.460310    4.454864 H         1 <1>         0.026559 
     46 H          -2.223486   -3.828879    6.763476 H         1 <1>         0.022987 
     47 H          -3.201144   -2.637187    5.857441 H         1 <1>         0.022987 
     48 H          -2.055946   -2.083657    7.117333 H         1 <1>         0.022987 
     49 H          -3.003391    1.273147   -2.593424 H         1 <1>         0.059471 
     50 H          -0.433113    2.784814   -1.753611 H         1 <1>         0.030802 
     51 H          -1.262656    3.234548   -3.269844 H         1 <1>         0.030802 
     52 H          -3.348357    3.726573   -1.971286 H         1 <1>         0.026559 
     53 H          -2.554984    3.193073   -0.463184 H         1 <1>         0.026559 
     54 H          -2.533877    5.693108   -0.650596 H         1 <1>         0.022987 
     55 H          -0.866284    5.050799   -0.682445 H         1 <1>         0.022987 
     56 H          -1.649315    5.583776   -2.201324 H         1 <1>         0.022987 
@<TRIPOS>BOND
     1    2    1 1    
     2    5    1 1    
     3    3    2 1    
     4    2   25 2    
     5    3    4 1    
     6   16    3 1    
     7    3   17 1    
     8    4    5 1    
     9    4   11 2    
    10    5   19 2    
    11    6    7 1    
    12   10    6 1    
    13    8    7 1    
    14    7   21 2    
    15    9    8 2    
    16    8   15 1    
    17    9   10 1    
    18    9   16 1    
    19   10   20 2    
    20   11   12 1    
    21   11   32 1    
    22   12   13 1    
    23   12   18 1    
    24   12   29 1    
    25   13   14 1    
    26   13   16 1    
    27   13   30 1    
    28   14   15 1    
    29   14   33 1    
    30   14   34 1    
    31   15   35 1    
    32   15   36 1    
    33   16   31 1    
    34   17   18 1    
    35   17   37 1    
    36   17   38 1    
    37   18   39 1    
    38   18   40 1    
    39   21   22 1    
    40   21   41 1    
    41   22   23 1    
    42   22   42 1    
    43   22   43 1    
    44   23   24 1    
    45   23   44 1    
    46   23   45 1    
    47   24   46 1    
    48   24   47 1    
    49   24   48 1    
    50   25   26 1    
    51   25   49 1    
    52   26   27 1    
    53   26   50 1    
    54   26   51 1    
    55   27   28 1    
    56   27   52 1    
    57   27   53 1    
    58   28   54 1    
    59   28   55 1    
    60   28   56 1    
@<TRIPOS>SUBSTRUCTURE
     1 ****        6 TEMP              0 ****  ****    0 ROOT 
@<TRIPOS>NORMAL
@<TRIPOS>FF_PBC
FORCE_FIELD_SETUP_FEATURE Force Field Setup information
v1.0  0 0.000000 0.000000 0.000000 0.000000 0.000000 0.000000 NONE 0 0 0 0 1 0 0 0 0 0 0 0 0
