@<TRIPOS>MOLECULE
MOL004698
   88    92     1     1     0
SMALL
GASTEIGER


@<TRIPOS>ATOM
      1 O          -0.405594    5.487593   -3.432472 O.3       1 <1>        -0.391162 
      2 C          -1.590854    2.993590   -2.039530 C.3       1 <1>        -0.044636 
      3 C           0.974004    0.011328   -1.485956 C.3       1 <1>         0.080545 
      4 C           0.792225   -1.327193   -0.784844 C.2       1 <1>        -0.055289 
      5 C          -0.065224   -1.615392    0.213728 C.2       1 <1>        -0.060744 
      6 C          -0.290218   -3.044511    0.720674 C.3       1 <1>        -0.008707 
      7 C          -0.769308    5.462922   -2.039481 C.3       1 <1>         0.062974 
      8 C           0.447623    5.146363   -1.098920 C.3       1 <1>         0.020274 
      9 C           0.412199    3.631311   -0.604151 C.3       1 <1>        -0.025405 
     10 C          -0.131785    2.548527   -1.616318 C.3       1 <1>        -0.022510 
     11 C          -0.100221    1.055412   -1.024938 C.3       1 <1>         0.000719 
     12 C          -0.209435    0.885023    0.533383 C.3       1 <1>        -0.016923 
     13 C          -0.987853    2.110777    1.081738 C.3       1 <1>        -0.046183 
     14 C          -0.240903    3.449498    0.818276 C.3       1 <1>        -0.048525 
     15 C          -1.949494    4.489039   -1.783301 C.3       1 <1>        -0.025745 
     16 C          -0.902247   -0.516179    0.862956 C.3       1 <1>        -0.002626 
     17 C          -1.003657   -0.734291    2.414712 C.3       1 <1>        -0.016608 
     18 C          -1.197513   -2.194702    2.911911 C.3       1 <1>         0.064286 
     19 C          -0.179804   -3.203163    2.272144 C.3       1 <1>         0.026310 
     20 C          -0.595543   -4.662896    2.665961 C.3       1 <1>        -0.041883 
     21 C           0.174627   -5.773717    1.901174 C.3       1 <1>        -0.047178 
     22 C           0.058024   -5.628682    0.356969 C.3       1 <1>        -0.034297 
     23 C           0.461550   -4.177211   -0.049717 C.3       1 <1>        -0.040647 
     24 C           0.430725    6.179408    0.089971 C.3       1 <1>         0.052200 
     25 O           1.413200    5.822323    1.081381 O.3       1 <1>        -0.394374 
     26 C           1.797882    5.499997   -1.824197 C.3       1 <1>        -0.054830 
     27 C           0.702446    2.527646   -2.941834 C.3       1 <1>        -0.058926 
     28 C           1.219004    0.944138    1.204681 C.3       1 <1>        -0.058408 
     29 O           0.799259   -0.299513   -2.889410 O.3       1 <1>        -0.375443 
     30 C           1.984474   -0.739233   -3.588798 C.3       1 <1>         0.037218 
     31 C          -2.352662   -0.690209    0.278391 C.3       1 <1>        -0.055240 
     32 O          -1.109224   -2.109151    4.348543 O.3       1 <1>        -0.391114 
     33 C           1.269199   -2.924694    2.786255 C.3       1 <1>         0.052730 
     34 O           1.341148   -3.126194    4.211093 O.3       1 <1>        -0.394355 
     35 C           1.045727   -6.633531   -0.315509 C.3       1 <1>        -0.059793 
     36 C          -1.377181   -5.996764   -0.140541 C.3       1 <1>        -0.059793 
     37 H          -1.124993    5.691129   -4.022631 H         1 <1>         0.209801 
     38 H          -1.745833    2.806985   -3.115155 H         1 <1>         0.027150 
     39 H          -2.383884    2.408272   -1.552741 H         1 <1>         0.027150 
     40 H           1.981701    0.410147   -1.293502 H         1 <1>         0.064325 
     41 H           1.434233   -2.102361   -1.182400 H         1 <1>         0.059746 
     42 H          -1.340239   -3.229203    0.463048 H         1 <1>         0.035287 
     43 H          -1.130730    6.488891   -1.839905 H         1 <1>         0.059936 
     44 H           1.477180    3.391043   -0.498874 H         1 <1>         0.031292 
     45 H          -0.980468    0.621039   -1.503531 H         1 <1>         0.033983 
     46 H          -1.139834    2.019724    2.168967 H         1 <1>         0.027097 
     47 H          -1.988199    2.177175    0.643587 H         1 <1>         0.027097 
     48 H           0.541727    3.573541    1.585037 H         1 <1>         0.026847 
     49 H          -1.001084    4.198953    1.059418 H         1 <1>         0.026847 
     50 H          -2.298576    4.625648   -0.750539 H         1 <1>         0.029039 
     51 H          -2.801308    4.772868   -2.425030 H         1 <1>         0.029039 
     52 H          -1.844736   -0.142046    2.809398 H         1 <1>         0.029875 
     53 H          -0.114764   -0.389117    2.947887 H         1 <1>         0.029875 
     54 H          -2.226793   -2.515053    2.682058 H         1 <1>         0.059982 
     55 H          -0.422136   -4.839984    3.738560 H         1 <1>         0.027247 
     56 H          -1.672123   -4.810502    2.496111 H         1 <1>         0.027247 
     57 H          -0.218326   -6.758959    2.203030 H         1 <1>         0.027063 
     58 H           1.232998   -5.755192    2.200616 H         1 <1>         0.027063 
     59 H           1.543873   -4.056340    0.099636 H         1 <1>         0.027632 
     60 H           0.258831   -4.087966   -1.129799 H         1 <1>         0.027632 
     61 H          -0.564722    6.280036    0.548985 H         1 <1>         0.056334 
     62 H           0.672939    7.191692   -0.279042 H         1 <1>         0.056334 
     63 H           1.452227    6.426447    1.817261 H         1 <1>         0.209420 
     64 H           1.749459    6.508702   -2.263670 H         1 <1>         0.023667 
     65 H           2.085433    4.825159   -2.633186 H         1 <1>         0.023667 
     66 H           2.635329    5.487690   -1.109137 H         1 <1>         0.023667 
     67 H           0.625697    3.446877   -3.518649 H         1 <1>         0.023526 
     68 H           0.318085    1.777500   -3.643165 H         1 <1>         0.023526 
     69 H           1.767041    2.331202   -2.751867 H         1 <1>         0.023526 
     70 H           1.185131    1.272093    2.253643 H         1 <1>         0.023543 
     71 H           1.907587    1.637278    0.718564 H         1 <1>         0.023543 
     72 H           1.738357   -0.019695    1.189777 H         1 <1>         0.023543 
     73 H           1.688175   -0.920576   -4.632303 H         1 <1>         0.052375 
     74 H           2.419702   -1.668830   -3.197443 H         1 <1>         0.052375 
     75 H           2.756546    0.045306   -3.588293 H         1 <1>         0.052375 
     76 H          -2.980499    0.192453    0.441326 H         1 <1>         0.023830 
     77 H          -2.897439   -1.515781    0.750245 H         1 <1>         0.023830 
     78 H          -2.364799   -0.928092   -0.794697 H         1 <1>         0.023830 
     79 H          -1.225661   -2.934649    4.804131 H         1 <1>         0.209802 
     80 H           2.006621   -3.587281    2.313886 H         1 <1>         0.056353 
     81 H           1.575228   -1.900631    2.545599 H         1 <1>         0.056353 
     82 H           2.199616   -2.944587    4.582260 H         1 <1>         0.209421 
     83 H           0.799600   -7.668879   -0.033338 H         1 <1>         0.023499 
     84 H           2.085719   -6.439882   -0.010534 H         1 <1>         0.023499 
     85 H           0.994487   -6.553683   -1.412378 H         1 <1>         0.023499 
     86 H          -2.169257   -5.370085    0.286746 H         1 <1>         0.023499 
     87 H          -1.612463   -7.040126    0.119750 H         1 <1>         0.023499 
     88 H          -1.436884   -5.902836   -1.235661 H         1 <1>         0.023499 
@<TRIPOS>BOND
     1    7    1 1    
     2    1   37 1    
     3   10    2 1    
     4    2   15 1    
     5    2   38 1    
     6    2   39 1    
     7    3    4 1    
     8   11    3 1    
     9    3   29 1    
    10    3   40 1    
    11    4    5 2    
    12    4   41 1    
    13    5    6 1    
    14    5   16 1    
    15    6   19 1    
    16    6   23 1    
    17    6   42 1    
    18    8    7 1    
    19   15    7 1    
    20    7   43 1    
    21    9    8 1    
    22    8   24 1    
    23    8   26 1    
    24   10    9 1    
    25    9   14 1    
    26    9   44 1    
    27   10   11 1    
    28   10   27 1    
    29   11   12 1    
    30   11   45 1    
    31   12   13 1    
    32   12   16 1    
    33   12   28 1    
    34   13   14 1    
    35   13   46 1    
    36   13   47 1    
    37   14   48 1    
    38   14   49 1    
    39   15   50 1    
    40   15   51 1    
    41   16   17 1    
    42   16   31 1    
    43   17   18 1    
    44   17   52 1    
    45   17   53 1    
    46   18   19 1    
    47   18   32 1    
    48   18   54 1    
    49   19   20 1    
    50   19   33 1    
    51   20   21 1    
    52   20   55 1    
    53   20   56 1    
    54   21   22 1    
    55   21   57 1    
    56   21   58 1    
    57   22   23 1    
    58   22   35 1    
    59   22   36 1    
    60   23   59 1    
    61   23   60 1    
    62   24   25 1    
    63   24   61 1    
    64   24   62 1    
    65   25   63 1    
    66   26   64 1    
    67   26   65 1    
    68   26   66 1    
    69   27   67 1    
    70   27   68 1    
    71   27   69 1    
    72   28   70 1    
    73   28   71 1    
    74   28   72 1    
    75   29   30 1    
    76   30   73 1    
    77   30   74 1    
    78   30   75 1    
    79   31   76 1    
    80   31   77 1    
    81   31   78 1    
    82   32   79 1    
    83   33   34 1    
    84   33   80 1    
    85   33   81 1    
    86   34   82 1    
    87   35   83 1    
    88   35   84 1    
    89   35   85 1    
    90   36   86 1    
    91   36   87 1    
    92   36   88 1    
@<TRIPOS>SUBSTRUCTURE
     1 ****        1 TEMP              0 ****  ****    0 ROOT 
@<TRIPOS>NORMAL
@<TRIPOS>FF_PBC
FORCE_FIELD_SETUP_FEATURE Force Field Setup information
v1.0  0 0.000000 0.000000 0.000000 0.000000 0.000000 0.000000 NONE 0 0 0 0 1 0 0 0 0 0 0 0 0
