@<TRIPOS>MOLECULE
MOL000348
   29    29     1     1     0
SMALL
GASTEIGER


@<TRIPOS>ATOM
      1 C          -1.026411   -1.598564   -0.205323 C.ar      1 <1>         0.132953 
      2 C          -0.940904   -0.579254    0.872575 C.ar      1 <1>         0.108530 
      3 C           0.044128   -1.725270   -1.155575 C.ar      1 <1>         0.108530 
      4 O          -2.155205   -2.420624   -0.271509 O.3       1 <1>        -0.355384 
      5 C           0.189842    0.265848    0.957174 C.ar      1 <1>        -0.021844 
      6 O          -2.004223   -0.491487    1.784649 O.3       1 <1>        -0.345243 
      7 C           1.214780   -0.826541   -1.037169 C.ar      1 <1>        -0.021844 
      8 O           0.043198   -2.659947   -2.202400 O.3       1 <1>        -0.345243 
      9 C           1.285977    0.143325   -0.030998 C.ar      1 <1>        -0.020213 
     10 C          -1.948613    0.344916    2.953415 C.3       1 <1>         0.043137 
     11 C          -1.054947   -3.547875   -2.462460 C.3       1 <1>         0.043137 
     12 C           2.492283    1.052708    0.046447 C.2       1 <1>        -0.056223 
     13 C           2.413071    2.388251    0.127883 C.2       1 <1>        -0.058387 
     14 C           1.138489    3.195155    0.084694 C.3       1 <1>         0.062691 
     15 O           1.388062    4.348143   -0.739984 O.3       1 <1>        -0.390992 
     16 H          -2.763923   -2.225059    0.434649 H         1 <1>         0.217502 
     17 H           0.283360    1.007322    1.739686 H         1 <1>         0.065003 
     18 H           2.023538   -0.929545   -1.752037 H         1 <1>         0.065003 
     19 H          -2.882779    0.194089    3.513743 H         1 <1>         0.052871 
     20 H          -1.105883    0.062311    3.603481 H         1 <1>         0.052871 
     21 H          -1.880029    1.410688    2.686371 H         1 <1>         0.052871 
     22 H          -0.794115   -4.137733   -3.354657 H         1 <1>         0.052871 
     23 H          -1.978227   -2.986987   -2.676569 H         1 <1>         0.052871 
     24 H          -1.211600   -4.243380   -1.623285 H         1 <1>         0.052871 
     25 H           3.470726    0.570535    0.030462 H         1 <1>         0.062106 
     26 H           3.341139    2.955627    0.221554 H         1 <1>         0.059478 
     27 H           0.302497    2.615896   -0.340806 H         1 <1>         0.060128 
     28 H           0.881180    3.510371    1.109281 H         1 <1>         0.060128 
     29 H           0.636695    4.928362   -0.819408 H         1 <1>         0.209823 
@<TRIPOS>BOND
     1    1    2 1    
     2    1    3 2    
     3    1    4 1    
     4    2    5 2    
     5    2    6 1    
     6    3    7 1    
     7    3    8 1    
     8    4   16 1    
     9    5    9 1    
    10    5   17 1    
    11    6   10 1    
    12    7    9 2    
    13    7   18 1    
    14    8   11 1    
    15    9   12 1    
    16   10   19 1    
    17   10   20 1    
    18   10   21 1    
    19   11   22 1    
    20   11   23 1    
    21   11   24 1    
    22   12   13 2    
    23   12   25 1    
    24   13   14 1    
    25   13   26 1    
    26   14   15 1    
    27   14   27 1    
    28   14   28 1    
    29   15   29 1    
@<TRIPOS>SUBSTRUCTURE
     1 ****        1 TEMP              0 ****  ****    0 ROOT 
@<TRIPOS>NORMAL
@<TRIPOS>FF_PBC
FORCE_FIELD_SETUP_FEATURE Force Field Setup information
v1.0  0 0.000000 0.000000 0.000000 0.000000 0.000000 0.000000 NONE 0 0 0 0 1 0 0 0 0 0 0 0 0
