@<TRIPOS>MOLECULE
MOL002184
   29    29     1     1     0
SMALL
GASTEIGER


@<TRIPOS>ATOM
      1 C           0.836959   -1.783304    1.826550 C.2       1 <1>        -0.087090 
      2 C          -0.371147   -2.164555    2.251547 C.2       1 <1>        -0.084184 
      3 C          -1.335512   -1.216890    2.918765 C.3       1 <1>        -0.016536 
      4 C          -1.688039    0.030736    2.138405 C.2       1 <1>        -0.083930 
      5 C          -0.908590    0.756478    1.320345 C.2       1 <1>        -0.084256 
      6 C           0.545872    0.535594    0.957537 C.3       1 <1>        -0.019472 
      7 C           1.308859   -0.362397    1.966907 C.3       1 <1>        -0.028471 
      8 C           0.686746   -0.008903   -0.495450 C.3       1 <1>        -0.046492 
      9 C           0.161558    0.976327   -1.577248 C.3       1 <1>        -0.052767 
     10 C           0.421761    0.432262   -3.009021 C.3       1 <1>        -0.055893 
     11 C          -0.108535    1.410029   -4.089980 C.3       1 <1>        -0.065276 
     12 H           1.494073   -2.516044    1.353334 H         1 <1>         0.056923 
     13 H          -0.663508   -3.207898    2.113465 H         1 <1>         0.057203 
     14 H          -2.269224   -1.777800    3.091039 H         1 <1>         0.034962 
     15 H          -0.947733   -0.926923    3.907044 H         1 <1>         0.034962 
     16 H          -2.713125    0.386424    2.273424 H         1 <1>         0.057212 
     17 H          -1.377075    1.628103    0.857510 H         1 <1>         0.057192 
     18 H           1.035501    1.524278    1.005176 H         1 <1>         0.034588 
     19 H           1.157461    0.006478    2.993527 H         1 <1>         0.031296 
     20 H           2.391926   -0.324753    1.762843 H         1 <1>         0.031296 
     21 H           0.136936   -0.959349   -0.587968 H         1 <1>         0.027098 
     22 H           1.752476   -0.207475   -0.695252 H         1 <1>         0.027098 
     23 H           0.664585    1.950440   -1.462822 H         1 <1>         0.026538 
     24 H          -0.922527    1.127411   -1.455276 H         1 <1>         0.026538 
     25 H          -0.078105   -0.543484   -3.129495 H         1 <1>         0.026265 
     26 H           1.504402    0.285641   -3.159590 H         1 <1>         0.026265 
     27 H           0.087570    1.005864   -5.095780 H         1 <1>         0.022978 
     28 H           0.390990    2.387467   -4.002008 H         1 <1>         0.022978 
     29 H          -1.194158    1.556240   -3.977431 H         1 <1>         0.022978 
@<TRIPOS>BOND
     1    1    2 2    
     2    1    7 1    
     3    1   12 1    
     4    2    3 1    
     5    2   13 1    
     6    3    4 1    
     7    3   14 1    
     8    3   15 1    
     9    4    5 2    
    10    4   16 1    
    11    5    6 1    
    12    5   17 1    
    13    6    7 1    
    14    6    8 1    
    15    6   18 1    
    16    7   19 1    
    17    7   20 1    
    18    8    9 1    
    19    8   21 1    
    20    8   22 1    
    21    9   10 1    
    22    9   23 1    
    23    9   24 1    
    24   10   11 1    
    25   10   25 1    
    26   10   26 1    
    27   11   27 1    
    28   11   28 1    
    29   11   29 1    
@<TRIPOS>SUBSTRUCTURE
     1 ****        1 TEMP              0 ****  ****    0 ROOT 
@<TRIPOS>NORMAL
@<TRIPOS>FF_PBC
FORCE_FIELD_SETUP_FEATURE Force Field Setup information
v1.0  0 0.000000 0.000000 0.000000 0.000000 0.000000 0.000000 NONE 0 0 0 0 1 0 0 0 0 0 0 0 0
