@<TRIPOS>MOLECULE
MOL012990
  182   192     1     1     0
SMALL
GASTEIGER


@<TRIPOS>ATOM
      1 C          -0.483073    3.268126    0.455284 C.3       1 <1>        -0.025470 
      2 C           0.032960    1.821926    0.270512 C.3       1 <1>         0.067174 
      3 C           1.032293    1.697014   -0.925224 C.3       1 <1>        -0.005230 
      4 C           2.202646    2.761252   -0.795129 C.3       1 <1>        -0.027836 
      5 C           1.752322    4.254621   -0.524027 C.3       1 <1>        -0.025246 
      6 C           0.688058    4.274718    0.624087 C.3       1 <1>        -0.044721 
      7 C           3.313113    2.319217    0.210092 C.3       1 <1>        -0.048617 
      8 C           4.549787    3.256175    0.174401 C.3       1 <1>        -0.046476 
      9 C           4.217732    4.688858    0.677476 C.3       1 <1>        -0.020557 
     10 C           2.995108    5.189376   -0.183276 C.3       1 <1>        -0.029356 
     11 C           5.440888    5.674487    0.459219 C.3       1 <1>         0.008081 
     12 C           5.078667    7.187925    0.651365 C.3       1 <1>        -0.022254 
     13 C           3.735236    7.609951   -0.012157 C.3       1 <1>        -0.048816 
     14 C           2.593501    6.617400    0.313265 C.3       1 <1>        -0.048911 
     15 C           6.191543    5.677160   -0.903801 C.3       1 <1>         0.010330 
     16 C           7.199735    6.737517   -0.419530 C.3       1 <1>         0.176956 
     17 C           6.282916    7.906592   -0.026357 C.3       1 <1>         0.045172 
     18 O           8.194858    7.185971   -1.348090 O.3       1 <1>        -0.340889 
     19 C           9.062151    8.186045   -0.766831 C.3       1 <1>         0.082911 
     20 C           8.243141    9.417932   -0.263483 C.3       1 <1>         0.006275 
     21 C           7.054150    9.053631    0.684270 C.3       1 <1>         0.073921 
     22 C          10.431608    5.462721   -0.937887 C.3       1 <1>        -0.043969 
     23 C          10.595831    6.420407    0.222350 C.2       1 <1>        -0.077208 
     24 C          10.004600    7.626048    0.276562 C.2       1 <1>        -0.056719 
     25 C          11.484569    5.930424    1.345418 C.3       1 <1>        -0.043969 
     26 C           3.983199    4.617115    2.229264 C.3       1 <1>        -0.058701 
     27 C           1.092893    4.862559   -1.830099 C.3       1 <1>        -0.059019 
     28 O          -1.139120    1.011591    0.015113 O.3       1 <1>        -0.344893 
     29 C           1.588683    0.231290   -0.936638 C.3       1 <1>        -0.057181 
     30 O           7.743982    6.097013    0.736340 O.3       1 <1>        -0.347589 
     31 C           6.670912    5.402331    1.381226 C.3       1 <1>         0.057503 
     32 C           0.271631    1.808642   -2.290298 C.3       1 <1>        -0.057181 
     33 C          -1.420376   -0.004590    1.001206 C.3       1 <1>         0.188196 
     34 O          -0.215396   -0.780956    1.085331 O.3       1 <1>        -0.346051 
     35 C          -0.339009   -1.937963    1.914745 C.3       1 <1>         0.079203 
     36 C          -1.317029   -2.931453    1.254397 C.3       1 <1>         0.107307 
     37 C          -2.717987   -2.276714    1.109596 C.3       1 <1>         0.120590 
     38 C          -2.632385   -0.843592    0.504619 C.3       1 <1>         0.140966 
     39 O          -3.891965   -0.222851    0.862002 O.3       1 <1>        -0.337751 
     40 O          -1.326415   -4.064254    2.141489 O.3       1 <1>        -0.386848 
     41 C          -3.986213   -4.305325    0.460515 C.3       1 <1>         0.188803 
     42 O          -2.829791   -5.155901    0.312303 O.3       1 <1>        -0.340500 
     43 C          -3.116655   -6.575035    0.371790 C.3       1 <1>         0.113365 
     44 C          -4.114860   -6.987962   -0.743137 C.3       1 <1>         0.111916 
     45 C          -5.406112   -6.140901   -0.598121 C.3       1 <1>         0.114429 
     46 C          -5.039606   -4.635275   -0.629872 C.3       1 <1>         0.140628 
     47 C          -1.751603   -7.306741    0.257706 C.3       1 <1>         0.079556 
     48 O          -6.317361   -6.464523   -1.664786 O.3       1 <1>        -0.386391 
     49 O          -4.449883   -8.383147   -0.623748 O.3       1 <1>        -0.386488 
     50 O          -6.156602   -3.710513   -0.659736 O.3       1 <1>        -0.337759 
     51 C          -7.155326   -3.885583    0.362222 C.3       1 <1>         0.188544 
     52 C          -4.263430    0.915989    0.066057 C.3       1 <1>         0.188431 
     53 O          -7.882268   -5.056507   -0.059135 O.3       1 <1>        -0.340519 
     54 C          -9.120937   -5.255931    0.648085 C.3       1 <1>         0.113005 
     55 C         -10.113268   -4.084264    0.367138 C.3       1 <1>         0.111896 
     56 C          -9.385501   -2.932010   -0.377329 C.3       1 <1>         0.114061 
     57 C          -8.058840   -2.616718    0.359923 C.3       1 <1>         0.134126 
     58 O          -4.471674    0.448102   -1.279100 O.3       1 <1>        -0.343067 
     59 C          -4.723073    1.509746   -2.222940 C.3       1 <1>         0.087307 
     60 C          -6.495586    2.034893   -0.532581 C.3       1 <1>         0.113972 
     61 C          -5.607885    1.483007    0.621731 C.3       1 <1>         0.134123 
     62 C          -5.580396    2.661765   -1.611316 C.3       1 <1>         0.109478 
     63 C          -3.394329    1.993870   -2.854748 C.3       1 <1>        -0.036060 
     64 O          -7.380620   -1.480112   -0.214257 O.3       1 <1>        -0.384104 
     65 O         -11.253975   -4.529074   -0.397420 O.3       1 <1>        -0.386488 
     66 O         -10.255106   -1.783803   -0.389072 O.3       1 <1>        -0.386401 
     67 O          -1.900131   -8.740517    0.311473 O.3       1 <1>        -0.346050 
     68 O          -3.601156   -2.949896    0.178546 O.3       1 <1>        -0.340043 
     69 C          -0.666644   -9.422332    0.615191 C.3       1 <1>         0.188012 
     70 O           0.416374   -8.889688   -0.170402 O.3       1 <1>        -0.340532 
     71 C           1.689189   -9.503167    0.131319 C.3       1 <1>         0.113005 
     72 C           1.638313  -11.030947   -0.147971 C.3       1 <1>         0.111896 
     73 C           0.475409  -11.675844    0.650098 C.3       1 <1>         0.114061 
     74 C          -0.844693  -10.933155    0.326948 C.3       1 <1>         0.134113 
     75 C           2.783993   -8.819388   -0.727576 C.3       1 <1>         0.073015 
     76 O           0.389960  -13.068161    0.290438 O.3       1 <1>        -0.386401 
     77 O           1.460318  -11.251074   -1.559684 O.3       1 <1>        -0.386488 
     78 O          -1.901058  -11.491067    1.132714 O.3       1 <1>        -0.384104 
     79 O           2.987738   -7.470278   -0.262292 O.3       1 <1>        -0.392366 
     80 O           6.137748   10.163840    0.741340 O.3       1 <1>        -0.388286 
     81 O          -4.803519    3.679379   -0.944069 O.3       1 <1>        -0.386579 
     82 O          -7.466992    2.994228   -0.072640 O.3       1 <1>        -0.386402 
     83 O          -6.337778    0.514348    1.402468 O.3       1 <1>        -0.384104 
     84 C          -9.694411   -6.616948    0.173719 C.3       1 <1>         0.073015 
     85 O         -10.938219   -6.924644    0.828351 O.3       1 <1>        -0.392366 
     86 C           7.520167    8.759308    2.142416 C.3       1 <1>        -0.035536 
     87 H          -1.148164    3.540320   -0.373053 H         1 <1>         0.029047 
     88 H          -1.111273    3.291565    1.362714 H         1 <1>         0.029047 
     89 H           0.556950    1.549433    1.202468 H         1 <1>         0.060224 
     90 H           2.738159    2.741674   -1.758064 H         1 <1>         0.031210 
     91 H           1.143689    4.023796    1.582429 H         1 <1>         0.027149 
     92 H           0.250661    5.279767    0.727468 H         1 <1>         0.027149 
     93 H           2.907814    2.205806    1.222923 H         1 <1>         0.026846 
     94 H           3.739425    1.345532   -0.076056 H         1 <1>         0.026846 
     95 H           5.351303    2.801922    0.777345 H         1 <1>         0.027088 
     96 H           4.908278    3.288494   -0.865211 H         1 <1>         0.027088 
     97 H           3.452097    5.293182   -1.179249 H         1 <1>         0.031156 
     98 H           5.004023    7.440352    1.717387 H         1 <1>         0.031229 
     99 H           3.470913    8.625631    0.328624 H         1 <1>         0.026833 
    100 H           3.811208    7.646615   -1.111202 H         1 <1>         0.026833 
    101 H           2.372592    6.620226    1.388557 H         1 <1>         0.026837 
    102 H           1.689134    7.019461   -0.164545 H         1 <1>         0.026837 
    103 H           5.612529    6.012911   -1.777188 H         1 <1>         0.032341 
    104 H           6.724202    4.745596   -1.153468 H         1 <1>         0.032341 
    105 H           5.963854    8.342337   -0.987849 H         1 <1>         0.038356 
    106 H           9.721982    8.534169   -1.578980 H         1 <1>         0.064228 
    107 H           8.905294   10.159484    0.210595 H         1 <1>         0.032111 
    108 H           7.813425    9.900768   -1.157165 H         1 <1>         0.032111 
    109 H          11.342673    4.859682   -1.071245 H         1 <1>         0.027428 
    110 H           9.591884    4.782694   -0.732266 H         1 <1>         0.027428 
    111 H          10.249428    5.983265   -1.888640 H         1 <1>         0.027428 
    112 H          10.221412    8.265053    1.130995 H         1 <1>         0.059695 
    113 H          11.508705    6.612934    2.208253 H         1 <1>         0.027428 
    114 H          11.116426    4.954374    1.695843 H         1 <1>         0.027428 
    115 H          12.513901    5.810065    0.975081 H         1 <1>         0.027428 
    116 H           4.811761    4.087949    2.720744 H         1 <1>         0.023534 
    117 H           3.927542    5.603971    2.703704 H         1 <1>         0.023534 
    118 H           3.089825    4.075366    2.534877 H         1 <1>         0.023534 
    119 H           1.407038    4.329510   -2.738645 H         1 <1>         0.023525 
    120 H           1.365349    5.904316   -2.039579 H         1 <1>         0.023525 
    121 H          -0.002590    4.881683   -1.802518 H         1 <1>         0.023525 
    122 H           1.988708   -0.075471    0.040509 H         1 <1>         0.023587 
    123 H           0.808620   -0.504675   -1.183976 H         1 <1>         0.023587 
    124 H           2.382380    0.127103   -1.692402 H         1 <1>         0.023587 
    125 H           6.559219    5.763777    2.414765 H         1 <1>         0.056658 
    126 H           6.972732    4.346085    1.408300 H         1 <1>         0.056658 
    127 H          -0.311890    2.721564   -2.405407 H         1 <1>         0.023587 
    128 H           0.980119    1.750565   -3.130587 H         1 <1>         0.023587 
    129 H          -0.449294    0.986989   -2.415995 H         1 <1>         0.023587 
    130 H          -1.664858    0.446603    1.977697 H         1 <1>         0.093749 
    131 H           0.656969   -2.404423    1.977273 H         1 <1>         0.058735 
    132 H          -0.661497   -1.677959    2.936190 H         1 <1>         0.058735 
    133 H          -0.933949   -3.192868    0.251642 H         1 <1>         0.064310 
    134 H          -3.171539   -2.212107    2.112702 H         1 <1>         0.065136 
    135 H          -2.512211   -0.966794   -0.585584 H         1 <1>         0.067487 
    136 H          -1.861275   -4.768145    1.796918 H         1 <1>         0.209990 
    137 H          -4.412510   -4.393662    1.471570 H         1 <1>         0.093763 
    138 H          -3.553165   -6.842363    1.348866 H         1 <1>         0.064677 
    139 H          -3.651744   -6.790296   -1.725642 H         1 <1>         0.064673 
    140 H          -5.858681   -6.404001    0.373339 H         1 <1>         0.064768 
    141 H          -4.536572   -4.450170   -1.591936 H         1 <1>         0.067477 
    142 H          -1.264933   -7.026256   -0.690054 H         1 <1>         0.058744 
    143 H          -1.116345   -6.953176    1.086417 H         1 <1>         0.058744 
    144 H          -7.123542   -5.958457   -1.579984 H         1 <1>         0.210005 
    145 H          -5.073341   -8.655891   -1.291327 H         1 <1>         0.210004 
    146 H          -6.714026   -4.002394    1.364925 H         1 <1>         0.093754 
    147 H          -3.479428    1.689360    0.109510 H         1 <1>         0.093753 
    148 H          -8.914345   -5.344721    1.729725 H         1 <1>         0.064668 
    149 H         -10.485954   -3.697164    1.333406 H         1 <1>         0.064673 
    150 H          -9.165038   -3.255489   -1.410149 H         1 <1>         0.064758 
    151 H          -8.328417   -2.329138    1.390197 H         1 <1>         0.067095 
    152 H          -5.306967    1.023163   -3.023410 H         1 <1>         0.062075 
    153 H          -7.058623    1.204211   -0.989179 H         1 <1>         0.064757 
    154 H          -5.369421    2.300561    1.321604 H         1 <1>         0.067095 
    155 H          -6.208680    3.131437   -2.390007 H         1 <1>         0.064584 
    156 H          -2.729140    2.407368   -2.085979 H         1 <1>         0.025536 
    157 H          -3.585011    2.764346   -3.617725 H         1 <1>         0.025536 
    158 H          -2.881903    1.143820   -3.331258 H         1 <1>         0.025536 
    159 H          -7.031806   -1.698675   -1.076176 H         1 <1>         0.210110 
    160 H         -11.855733   -3.814191   -0.589247 H         1 <1>         0.210004 
    161 H          -9.844968   -1.029845   -0.803433 H         1 <1>         0.210005 
    162 H          -0.470968   -9.279562    1.691366 H         1 <1>         0.093741 
    163 H           1.949772   -9.328169    1.189186 H         1 <1>         0.064668 
    164 H           2.586697  -11.498293    0.172490 H         1 <1>         0.064673 
    165 H           0.679382  -11.587822    1.732118 H         1 <1>         0.064758 
    166 H          -1.070283  -11.059409   -0.745848 H         1 <1>         0.067095 
    167 H           3.730162   -9.380742   -0.643471 H         1 <1>         0.058370 
    168 H           2.459303   -8.824164   -1.781704 H         1 <1>         0.058370 
    169 H          -0.329079  -13.506117    0.737780 H         1 <1>         0.210005 
    170 H           1.385550  -12.178744   -1.766826 H         1 <1>         0.210004 
    171 H          -2.729782  -11.046160    0.974321 H         1 <1>         0.210110 
    172 H           3.636445   -6.992569   -0.771115 H         1 <1>         0.209508 
    173 H           6.525839   10.957270    1.094838 H         1 <1>         0.210163 
    174 H          -4.272630    4.206502   -1.532866 H         1 <1>         0.210002 
    175 H          -7.057424    3.774051    0.289147 H         1 <1>         0.210005 
    176 H          -6.519514   -0.276823    0.901604 H         1 <1>         0.210110 
    177 H          -9.819935   -6.607918   -0.922652 H         1 <1>         0.058370 
    178 H          -8.973992   -7.412728    0.421538 H         1 <1>         0.058370 
    179 H         -11.619693   -6.296961    0.599156 H         1 <1>         0.209508 
    180 H           6.653860    8.658025    2.810634 H         1 <1>         0.025733 
    181 H           8.132915    7.857315    2.240466 H         1 <1>         0.025733 
    182 H           8.117020    9.606388    2.513087 H         1 <1>         0.025733 
@<TRIPOS>BOND
     1    2    1 1    
     2    1    6 1    
     3    1   87 1    
     4    1   88 1    
     5    2    3 1    
     6   28    2 1    
     7    2   89 1    
     8    3    4 1    
     9    3   29 1    
    10    3   32 1    
    11    4    5 1    
    12    4    7 1    
    13    4   90 1    
    14    6    5 1    
    15    5   10 1    
    16    5   27 1    
    17    6   91 1    
    18    6   92 1    
    19    7    8 1    
    20    7   93 1    
    21    7   94 1    
    22    8    9 1    
    23    8   95 1    
    24    8   96 1    
    25   10    9 1    
    26    9   11 1    
    27    9   26 1    
    28   10   14 1    
    29   10   97 1    
    30   11   12 1    
    31   11   15 1    
    32   11   31 1    
    33   13   12 1    
    34   12   17 1    
    35   12   98 1    
    36   14   13 1    
    37   13   99 1    
    38   13  100 1    
    39   14  101 1    
    40   14  102 1    
    41   15   16 1    
    42   15  103 1    
    43   15  104 1    
    44   16   17 1    
    45   16   18 1    
    46   30   16 1    
    47   17   21 1    
    48   17  105 1    
    49   18   19 1    
    50   19   20 1    
    51   19   24 1    
    52   19  106 1    
    53   21   20 1    
    54   20  107 1    
    55   20  108 1    
    56   21   80 1    
    57   21   86 1    
    58   23   22 1    
    59   22  109 1    
    60   22  110 1    
    61   22  111 1    
    62   24   23 2    
    63   23   25 1    
    64   24  112 1    
    65   25  113 1    
    66   25  114 1    
    67   25  115 1    
    68   26  116 1    
    69   26  117 1    
    70   26  118 1    
    71   27  119 1    
    72   27  120 1    
    73   27  121 1    
    74   33   28 1    
    75   29  122 1    
    76   29  123 1    
    77   29  124 1    
    78   31   30 1    
    79   31  125 1    
    80   31  126 1    
    81   32  127 1    
    82   32  128 1    
    83   32  129 1    
    84   33   34 1    
    85   38   33 1    
    86   33  130 1    
    87   35   34 1    
    88   36   35 1    
    89   35  131 1    
    90   35  132 1    
    91   37   36 1    
    92   36   40 1    
    93   36  133 1    
    94   37   38 1    
    95   68   37 1    
    96   37  134 1    
    97   38   39 1    
    98   38  135 1    
    99   39   52 1    
   100   40  136 1    
   101   41   42 1    
   102   41   46 1    
   103   41   68 1    
   104   41  137 1    
   105   42   43 1    
   106   43   44 1    
   107   43   47 1    
   108   43  138 1    
   109   44   45 1    
   110   44   49 1    
   111   44  139 1    
   112   45   46 1    
   113   45   48 1    
   114   45  140 1    
   115   46   50 1    
   116   46  141 1    
   117   47   67 1    
   118   47  142 1    
   119   47  143 1    
   120   48  144 1    
   121   49  145 1    
   122   50   51 1    
   123   51   53 1    
   124   51   57 1    
   125   51  146 1    
   126   52   58 1    
   127   52   61 1    
   128   52  147 1    
   129   53   54 1    
   130   54   55 1    
   131   54   84 1    
   132   54  148 1    
   133   55   56 1    
   134   55   65 1    
   135   55  149 1    
   136   56   57 1    
   137   56   66 1    
   138   56  150 1    
   139   57   64 1    
   140   57  151 1    
   141   58   59 1    
   142   59   62 1    
   143   59   63 1    
   144   59  152 1    
   145   61   60 1    
   146   60   62 1    
   147   60   82 1    
   148   60  153 1    
   149   61   83 1    
   150   61  154 1    
   151   62   81 1    
   152   62  155 1    
   153   63  156 1    
   154   63  157 1    
   155   63  158 1    
   156   64  159 1    
   157   65  160 1    
   158   66  161 1    
   159   67   69 1    
   160   69   70 1    
   161   69   74 1    
   162   69  162 1    
   163   70   71 1    
   164   71   72 1    
   165   71   75 1    
   166   71  163 1    
   167   72   73 1    
   168   72   77 1    
   169   72  164 1    
   170   73   74 1    
   171   73   76 1    
   172   73  165 1    
   173   74   78 1    
   174   74  166 1    
   175   75   79 1    
   176   75  167 1    
   177   75  168 1    
   178   76  169 1    
   179   77  170 1    
   180   78  171 1    
   181   79  172 1    
   182   80  173 1    
   183   81  174 1    
   184   82  175 1    
   185   83  176 1    
   186   84   85 1    
   187   84  177 1    
   188   84  178 1    
   189   85  179 1    
   190   86  180 1    
   191   86  181 1    
   192   86  182 1    
@<TRIPOS>SUBSTRUCTURE
     1 ****       41 TEMP              0 ****  ****    0 ROOT 
@<TRIPOS>NORMAL
@<TRIPOS>FF_PBC
FORCE_FIELD_SETUP_FEATURE Force Field Setup information
v1.0  0 0.000000 0.000000 0.000000 0.000000 0.000000 0.000000 NONE 0 0 0 0 1 0 0 0 0 0 0 0 0
