@<TRIPOS>MOLECULE
MOL002239
   26    27     1     1     0
SMALL
GASTEIGER


@<TRIPOS>ATOM
      1 C          -1.480853   -0.111438   -0.134809 C.ar      1 <1>         0.075745 
      2 C          -0.913109    1.237919    0.088505 C.ar      1 <1>        -0.020619 
      3 C           0.489083    1.432191    0.235604 C.ar      1 <1>         0.032828 
      4 C           1.382240    0.244273    0.212349 C.ar      1 <1>         0.062741 
      5 C           0.836644   -1.051957   -0.030217 C.ar      1 <1>         0.096542 
      6 C          -0.624133   -1.218282   -0.205541 C.ar      1 <1>        -0.000672 
      7 C           2.870695    0.292447    0.451603 C.2       1 <1>         0.191361 
      8 C           3.619543   -0.960374    0.318277 C.2       1 <1>         0.011851 
      9 C           2.990835   -2.113310    0.057026 C.2       1 <1>         0.061017 
     10 O           1.659981   -2.181549   -0.096565 O.3       1 <1>        -0.312911 
     11 C           0.983852    2.853118    0.400447 C.2       1 <1>         0.160956 
     12 C           3.685805   -3.442417   -0.090685 C.3       1 <1>        -0.017388 
     13 O           3.450814    1.318235    0.763307 O.2       1 <1>        -0.287095 
     14 C           2.111416    3.419862   -0.420647 C.3       1 <1>        -0.001387 
     15 O           0.421345    3.577891    1.205145 O.2       1 <1>        -0.292333 
     16 O          -2.864104   -0.249449   -0.278676 O.3       1 <1>        -0.359729 
     17 H          -1.585884    2.087993    0.125551 H         1 <1>         0.065039 
     18 H          -1.015944   -2.213300   -0.383176 H         1 <1>         0.066946 
     19 H           4.701375   -0.927052    0.441715 H         1 <1>         0.067855 
     20 H           4.775168   -3.360424    0.041710 H         1 <1>         0.029714 
     21 H           3.291849   -4.142883    0.660754 H         1 <1>         0.029714 
     22 H           3.483193   -3.846819   -1.093648 H         1 <1>         0.029714 
     23 H           2.481277    2.688572   -1.154417 H         1 <1>         0.030932 
     24 H           1.742235    4.299604   -0.968222 H         1 <1>         0.030932 
     25 H           2.936503    3.737443    0.233969 H         1 <1>         0.030932 
     26 H          -3.165924   -1.145093   -0.382256 H         1 <1>         0.217315 
@<TRIPOS>BOND
     1    1    2 1    
     2    1    6 2    
     3    1   16 1    
     4    2    3 2    
     5    2   17 1    
     6    3    4 1    
     7    3   11 1    
     8    4    5 2    
     9    4    7 1    
    10    5    6 1    
    11    5   10 1    
    12    6   18 1    
    13    7    8 1    
    14    7   13 2    
    15    8    9 2    
    16    8   19 1    
    17    9   10 1    
    18    9   12 1    
    19   11   14 1    
    20   11   15 2    
    21   12   20 1    
    22   12   21 1    
    23   12   22 1    
    24   14   23 1    
    25   14   24 1    
    26   14   25 1    
    27   16   26 1    
@<TRIPOS>SUBSTRUCTURE
     1 ****        1 TEMP              0 ****  ****    0 ROOT 
@<TRIPOS>NORMAL
@<TRIPOS>FF_PBC
FORCE_FIELD_SETUP_FEATURE Force Field Setup information
v1.0  0 0.000000 0.000000 0.000000 0.000000 0.000000 0.000000 NONE 0 0 0 0 1 0 0 0 0 0 0 0 0
