@<TRIPOS>MOLECULE
MOL004694
   82    86     1     1     0
SMALL
GASTEIGER


@<TRIPOS>ATOM
      1 O           5.885827    1.101570   -3.241783 O.3       1 <1>        -0.391162 
      2 O          -2.621057   -0.516426    4.347882 O.3       1 <1>        -0.390817 
      3 O           3.451848    4.422154   -2.824424 O.3       1 <1>        -0.394374 
      4 O          -2.476609   -3.039109    4.316906 O.3       1 <1>        -0.394059 
      5 C           2.577541    1.699607   -1.432099 C.3       1 <1>        -0.025215 
      6 C           0.237671    2.403441   -0.506752 C.3       1 <1>        -0.045983 
      7 C           3.347279   -0.692618   -1.003503 C.3       1 <1>        -0.044446 
      8 C          -1.514750   -0.622414    0.285971 C.2       1 <1>        -0.041177 
      9 C           0.341018   -0.351165   -1.168822 C.2       1 <1>        -0.079573 
     10 C          -2.215505   -1.670148    0.772265 C.2       1 <1>        -0.054572 
     11 C          -0.944555   -0.687474   -1.059410 C.2       1 <1>        -0.061680 
     12 C           0.226611    1.310880    0.628102 C.3       1 <1>        -0.015850 
     13 C           2.625320    0.546774   -0.362103 C.3       1 <1>        -0.021728 
     14 C           1.136730    0.163799    0.030882 C.3       1 <1>        -0.010741 
     15 C          -1.217601    0.691182    0.998001 C.3       1 <1>         0.001211 
     16 C           3.954469    2.096550   -2.096107 C.3       1 <1>         0.020282 
     17 C           1.657022    2.875159   -0.976976 C.3       1 <1>        -0.048508 
     18 C          -1.405258    0.382171    2.521451 C.3       1 <1>        -0.016023 
     19 C           4.587424    0.795494   -2.696630 C.3       1 <1>         0.062974 
     20 C          -2.712801   -1.802116    2.209069 C.3       1 <1>         0.041279 
     21 C           4.716818   -0.359201   -1.665683 C.3       1 <1>        -0.025737 
     22 C           0.753784    2.069626    1.900650 C.3       1 <1>        -0.058207 
     23 C           3.442810    0.897537    0.932661 C.3       1 <1>        -0.058735 
     24 C          -2.679734   -0.411209    2.911482 C.3       1 <1>         0.067441 
     25 C          -2.369790    1.650291    0.552682 C.3       1 <1>        -0.054936 
     26 C           3.730482    3.087169   -3.292066 C.3       1 <1>         0.052200 
     27 C           4.975659    2.805976   -1.149744 C.3       1 <1>        -0.054830 
     28 C          -4.171845   -2.377180    2.159422 C.3       1 <1>        -0.038670 
     29 C          -2.624913   -2.840978   -0.106106 C.3       1 <1>        -0.025318 
     30 C          -4.153302   -2.679704   -0.397420 C.3       1 <1>        -0.031141 
     31 C          -4.871417   -2.010203    0.823804 C.3       1 <1>        -0.046636 
     32 C          -1.838384   -2.799338    3.044381 C.3       1 <1>         0.055890 
     33 C          -4.767519   -4.082890   -0.691724 C.3       1 <1>        -0.059522 
     34 C          -4.374924   -1.782072   -1.651885 C.3       1 <1>        -0.059522 
     35 H           6.309887    0.360170   -3.662795 H         1 <1>         0.209801 
     36 H          -3.278310   -1.101289    4.713141 H         1 <1>         0.209815 
     37 H           3.321811    5.053802   -3.525954 H         1 <1>         0.209420 
     38 H          -1.985575   -3.625813    4.885401 H         1 <1>         0.209434 
     39 H           2.028338    1.299103   -2.292173 H         1 <1>         0.031300 
     40 H          -0.307547    3.302458   -0.176043 H         1 <1>         0.027105 
     41 H          -0.269968    2.039830   -1.413179 H         1 <1>         0.027105 
     42 H           3.489885   -1.474192   -0.238753 H         1 <1>         0.027158 
     43 H           2.760538   -1.155184   -1.805679 H         1 <1>         0.027158 
     44 H           0.706498   -0.466449   -2.186752 H         1 <1>         0.057525 
     45 H          -1.515037   -0.995033   -1.936376 H         1 <1>         0.061744 
     46 H           1.176490   -0.661339    0.760332 H         1 <1>         0.035395 
     47 H           1.467557    3.546666   -1.829803 H         1 <1>         0.026847 
     48 H           2.168191    3.494128   -0.231586 H         1 <1>         0.026847 
     49 H          -1.467618    1.302319    3.120899 H         1 <1>         0.029895 
     50 H          -0.544734   -0.200730    2.870872 H         1 <1>         0.029895 
     51 H           3.939574    0.438856   -3.518281 H         1 <1>         0.059936 
     52 H           5.074192   -1.260576   -2.193471 H         1 <1>         0.029039 
     53 H           5.502092   -0.117477   -0.938864 H         1 <1>         0.029039 
     54 H           1.018226    1.404115    2.731353 H         1 <1>         0.023552 
     55 H          -0.013524    2.776972    2.246069 H         1 <1>         0.023552 
     56 H           1.618239    2.711274    1.753126 H         1 <1>         0.023552 
     57 H           2.976416    0.468696    1.828904 H         1 <1>         0.023534 
     58 H           4.456900    0.483656    0.951411 H         1 <1>         0.023534 
     59 H           3.563993    1.974962    1.078867 H         1 <1>         0.023534 
     60 H          -3.590835    0.159721    2.678082 H         1 <1>         0.060283 
     61 H          -3.366168    1.233682    0.740401 H         1 <1>         0.023839 
     62 H          -2.302092    2.610985    1.084094 H         1 <1>         0.023839 
     63 H          -2.355691    1.842496   -0.527801 H         1 <1>         0.023839 
     64 H           4.645752    3.141934   -3.906428 H         1 <1>         0.056334 
     65 H           2.916175    2.736967   -3.948332 H         1 <1>         0.056334 
     66 H           5.415338    2.146567   -0.396881 H         1 <1>         0.023667 
     67 H           4.512790    3.657937   -0.632963 H         1 <1>         0.023667 
     68 H           5.821629    3.200225   -1.733416 H         1 <1>         0.023667 
     69 H          -4.172778   -3.475760    2.234181 H         1 <1>         0.027536 
     70 H          -4.769839   -2.007822    3.007619 H         1 <1>         0.027536 
     71 H          -2.455751   -3.780445    0.432644 H         1 <1>         0.031555 
     72 H          -2.064095   -2.974835   -1.039421 H         1 <1>         0.031555 
     73 H          -4.846795   -0.912145    0.742081 H         1 <1>         0.027081 
     74 H          -5.933084   -2.305134    0.852300 H         1 <1>         0.027081 
     75 H          -1.735057   -3.775658    2.549208 H         1 <1>         0.056653 
     76 H          -0.818757   -2.416422    3.194057 H         1 <1>         0.056653 
     77 H          -5.828528   -3.996161   -0.972243 H         1 <1>         0.023508 
     78 H          -4.231968   -4.565788   -1.523667 H         1 <1>         0.023508 
     79 H          -4.702774   -4.741658    0.186977 H         1 <1>         0.023508 
     80 H          -5.451304   -1.655239   -1.845307 H         1 <1>         0.023508 
     81 H          -3.915611   -2.232405   -2.545177 H         1 <1>         0.023508 
     82 H          -3.936538   -0.783771   -1.503321 H         1 <1>         0.023508 
@<TRIPOS>BOND
     1   19    1 1    
     2    1   35 1    
     3   24    2 1    
     4    2   36 1    
     5   26    3 1    
     6    3   37 1    
     7   32    4 1    
     8    4   38 1    
     9   13    5 1    
    10    5   16 1    
    11   17    5 1    
    12    5   39 1    
    13   12    6 1    
    14    6   17 1    
    15    6   40 1    
    16    6   41 1    
    17   13    7 1    
    18    7   21 1    
    19    7   42 1    
    20    7   43 1    
    21   10    8 2    
    22    8   11 1    
    23    8   15 1    
    24   11    9 2    
    25    9   14 1    
    26    9   44 1    
    27   20   10 1    
    28   10   29 1    
    29   11   45 1    
    30   12   14 1    
    31   15   12 1    
    32   12   22 1    
    33   14   13 1    
    34   13   23 1    
    35   14   46 1    
    36   18   15 1    
    37   15   25 1    
    38   16   19 1    
    39   16   26 1    
    40   16   27 1    
    41   17   47 1    
    42   17   48 1    
    43   24   18 1    
    44   18   49 1    
    45   18   50 1    
    46   21   19 1    
    47   19   51 1    
    48   20   24 1    
    49   20   28 1    
    50   20   32 1    
    51   21   52 1    
    52   21   53 1    
    53   22   54 1    
    54   22   55 1    
    55   22   56 1    
    56   23   57 1    
    57   23   58 1    
    58   23   59 1    
    59   24   60 1    
    60   25   61 1    
    61   25   62 1    
    62   25   63 1    
    63   26   64 1    
    64   26   65 1    
    65   27   66 1    
    66   27   67 1    
    67   27   68 1    
    68   28   31 1    
    69   28   69 1    
    70   28   70 1    
    71   29   30 1    
    72   29   71 1    
    73   29   72 1    
    74   30   31 1    
    75   30   33 1    
    76   30   34 1    
    77   31   73 1    
    78   31   74 1    
    79   32   75 1    
    80   32   76 1    
    81   33   77 1    
    82   33   78 1    
    83   33   79 1    
    84   34   80 1    
    85   34   81 1    
    86   34   82 1    
@<TRIPOS>SUBSTRUCTURE
     1 ****        6 TEMP              0 ****  ****    0 ROOT 
@<TRIPOS>NORMAL
@<TRIPOS>FF_PBC
FORCE_FIELD_SETUP_FEATURE Force Field Setup information
v1.0  0 0.000000 0.000000 0.000000 0.000000 0.000000 0.000000 NONE 0 0 0 0 1 0 0 0 0 0 0 0 0
