@<TRIPOS>MOLECULE
MOL004619
   27    26     1     1     0
SMALL
GASTEIGER


@<TRIPOS>ATOM
      1 C          -2.214361   -3.645414    0.000146 C.2       1 <1>        -0.091108 
      2 C          -0.917329   -2.872160    0.000811 C.3       1 <1>        -0.035012 
      3 C          -1.154325   -1.337819   -0.000332 C.3       1 <1>        -0.049624 
      4 C           0.187959   -0.556021    0.001020 C.3       1 <1>        -0.052768 
      5 C          -0.051075    0.978841   -0.000808 C.3       1 <1>        -0.052587 
      6 C           1.291434    1.760129    0.000710 C.3       1 <1>        -0.044061 
      7 C           1.054798    3.294843   -0.002075 C.3       1 <1>         0.033006 
      8 C           2.342456    4.077681   -0.001281 C.2       1 <1>         0.259588 
      9 O           2.200847    5.404704   -0.004480 O.3       1 <1>        -0.331267 
     10 O           3.437785    3.537443    0.002043 O.2       1 <1>        -0.265177 
     11 C          -2.232067   -4.983747   -0.000595 C.2       1 <1>        -0.102630 
     12 H          -3.164287   -3.107796    0.000318 H         1 <1>         0.056630 
     13 H          -0.339340   -3.154517    0.895512 H         1 <1>         0.030724 
     14 H          -0.337615   -3.155575   -0.892453 H         1 <1>         0.030724 
     15 H          -1.737223   -1.063462   -0.895250 H         1 <1>         0.026822 
     16 H          -1.739487   -1.062404    0.892777 H         1 <1>         0.026822 
     17 H           0.769828   -0.833294    0.895486 H         1 <1>         0.026538 
     18 H           0.772578   -0.834959   -0.891136 H         1 <1>         0.026538 
     19 H          -0.632875    1.255619   -0.895499 H         1 <1>         0.026540 
     20 H          -0.635942    1.257413    0.891307 H         1 <1>         0.026540 
     21 H           1.874154    1.486590    0.896041 H         1 <1>         0.027004 
     22 H           1.877655    1.483986   -0.891529 H         1 <1>         0.027004 
     23 H           0.480963    3.581594   -0.897174 H         1 <1>         0.036600 
     24 H           0.478022    3.584416    0.890222 H         1 <1>         0.036600 
     25 H           3.041778    5.848994   -0.003892 H         1 <1>         0.220208 
     26 H          -3.174526   -5.532028   -0.001039 H         1 <1>         0.053174 
     27 H          -1.304009   -5.555256   -0.000752 H         1 <1>         0.053174 
@<TRIPOS>BOND
     1    1    2 1    
     2    1   11 2    
     3    1   12 1    
     4    2    3 1    
     5    2   13 1    
     6    2   14 1    
     7    3    4 1    
     8    3   15 1    
     9    3   16 1    
    10    4    5 1    
    11    4   17 1    
    12    4   18 1    
    13    5    6 1    
    14    5   19 1    
    15    5   20 1    
    16    6    7 1    
    17    6   21 1    
    18    6   22 1    
    19    7    8 1    
    20    7   23 1    
    21    7   24 1    
    22    8    9 1    
    23    8   10 2    
    24    9   25 1    
    25   11   26 1    
    26   11   27 1    
@<TRIPOS>SUBSTRUCTURE
     1 ****        1 TEMP              0 ****  ****    0 ROOT 
@<TRIPOS>NORMAL
@<TRIPOS>FF_PBC
FORCE_FIELD_SETUP_FEATURE Force Field Setup information
v1.0  0 0.000000 0.000000 0.000000 0.000000 0.000000 0.000000 NONE 0 0 0 0 1 0 0 0 0 0 0 0 0
