@<TRIPOS>MOLECULE
MOL002670
   49    53     1     1     0
SMALL
GASTEIGER


@<TRIPOS>ATOM
      1 O          -5.438438   -1.374147    0.475301 O.3       1 <1>        -0.314727 
      2 O          -6.701763    0.662661    0.154205 O.3       1 <1>        -0.315042 
      3 O           4.143352    1.963523    1.130101 O.3       1 <1>        -0.345332 
      4 O           5.451998   -0.137892   -0.288104 O.3       1 <1>        -0.345333 
      5 N          -0.982160   -1.484731   -0.076683 N.3       1 <1>        -0.290289 
      6 C          -0.338857   -0.261301    0.456214 C.3       1 <1>         0.042822 
      7 C          -0.968521    0.930890   -0.312329 C.3       1 <1>         0.001429 
      8 C          -2.401256   -1.625458    0.321525 C.3       1 <1>         0.027442 
      9 C           1.192062   -0.245012    0.308756 C.ar      1 <1>        -0.023877 
     10 C          -0.172998   -2.714783    0.036702 C.3       1 <1>         0.003809 
     11 C          -2.495018    0.902460   -0.164098 C.ar      1 <1>        -0.035718 
     12 C          -3.164213   -0.316391    0.126303 C.ar      1 <1>         0.002714 
     13 C           1.071041   -2.554020   -0.867047 C.3       1 <1>        -0.014443 
     14 C           1.886698   -1.357991   -0.377264 C.ar      1 <1>        -0.038867 
     15 C          -0.623289    0.873041   -1.824410 C.3       1 <1>        -0.056639 
     16 C          -4.640605   -0.276990    0.222185 C.ar      1 <1>         0.113680 
     17 C           1.958937    0.825926    0.822507 C.ar      1 <1>        -0.024193 
     18 C          -3.281644    2.156051   -0.334661 C.ar      1 <1>        -0.055355 
     19 C           3.282089   -1.311364   -0.562874 C.ar      1 <1>        -0.025619 
     20 C          -5.338149    0.846059    0.050243 C.ar      1 <1>         0.109356 
     21 C          -4.685135    2.141679   -0.234156 C.ar      1 <1>        -0.028750 
     22 C           3.427368    0.873388    0.627799 C.ar      1 <1>         0.105975 
     23 C           4.073866   -0.164659   -0.059321 C.ar      1 <1>         0.105927 
     24 C          -6.716349   -0.698697    0.680828 C.3       1 <1>         0.160043 
     25 C           4.674357    2.851587    0.133505 C.3       1 <1>         0.043136 
     26 C           6.289219   -0.271786    0.871379 C.3       1 <1>         0.043136 
     27 H          -0.557178   -0.177266    1.532884 H         1 <1>         0.051819 
     28 H          -0.596729    1.880297    0.104529 H         1 <1>         0.036471 
     29 H          -2.478383   -1.925531    1.377742 H         1 <1>         0.047675 
     30 H          -2.895338   -2.384733   -0.303712 H         1 <1>         0.047675 
     31 H          -0.745204   -3.593073   -0.305029 H         1 <1>         0.042996 
     32 H           0.123487   -2.876239    1.085993 H         1 <1>         0.042996 
     33 H           0.759022   -2.364071   -1.906503 H         1 <1>         0.032566 
     34 H           1.676810   -3.474123   -0.835005 H         1 <1>         0.032566 
     35 H          -1.010589   -0.054021   -2.273569 H         1 <1>         0.023613 
     36 H          -1.078153    1.726780   -2.350564 H         1 <1>         0.023613 
     37 H           0.464808    0.911316   -1.984846 H         1 <1>         0.023613 
     38 H           1.483175    1.636479    1.360415 H         1 <1>         0.064743 
     39 H          -2.765044    3.088279   -0.540060 H         1 <1>         0.062128 
     40 H           3.795945   -2.117262   -1.072908 H         1 <1>         0.064693 
     41 H          -5.274553    3.041567   -0.360003 H         1 <1>         0.064421 
     42 H          -6.886463   -0.630148    1.768267 H         1 <1>         0.087950 
     43 H          -7.543922   -1.281754    0.246875 H         1 <1>         0.087950 
     44 H           3.860332    3.267627   -0.479576 H         1 <1>         0.052871 
     45 H           5.401579    2.350849   -0.522990 H         1 <1>         0.052871 
     46 H           5.184663    3.676829    0.651172 H         1 <1>         0.052871 
     47 H           6.103084   -1.235319    1.370294 H         1 <1>         0.052871 
     48 H           6.140107    0.546163    1.591795 H         1 <1>         0.052871 
     49 H           7.334155   -0.245890    0.528792 H         1 <1>         0.052871 
@<TRIPOS>BOND
     1   16    1 1    
     2    1   24 1    
     3   20    2 1    
     4    2   24 1    
     5   22    3 1    
     6    3   25 1    
     7   23    4 1    
     8    4   26 1    
     9    6    5 1    
    10    5    8 1    
    11   10    5 1    
    12    6    7 1    
    13    9    6 1    
    14    6   27 1    
    15    7   11 1    
    16    7   15 1    
    17    7   28 1    
    18    8   12 1    
    19    8   29 1    
    20    8   30 1    
    21   14    9 1    
    22    9   17 2    
    23   13   10 1    
    24   10   31 1    
    25   10   32 1    
    26   11   12 2    
    27   11   18 1    
    28   12   16 1    
    29   14   13 1    
    30   13   33 1    
    31   13   34 1    
    32   19   14 2    
    33   15   35 1    
    34   15   36 1    
    35   15   37 1    
    36   16   20 2    
    37   17   22 1    
    38   17   38 1    
    39   18   21 2    
    40   18   39 1    
    41   19   23 1    
    42   19   40 1    
    43   20   21 1    
    44   21   41 1    
    45   22   23 2    
    46   24   42 1    
    47   24   43 1    
    48   25   44 1    
    49   25   45 1    
    50   25   46 1    
    51   26   47 1    
    52   26   48 1    
    53   26   49 1    
@<TRIPOS>SUBSTRUCTURE
     1 ****        5 TEMP              0 ****  ****    0 ROOT 
@<TRIPOS>NORMAL
@<TRIPOS>FF_PBC
FORCE_FIELD_SETUP_FEATURE Force Field Setup information
v1.0  0 0.000000 0.000000 0.000000 0.000000 0.000000 0.000000 NONE 0 0 0 0 1 0 0 0 0 0 0 0 0
