@<TRIPOS>MOLECULE
MOL003971
   17    16     1     1     0
SMALL
GASTEIGER


@<TRIPOS>ATOM
      1 O          -1.353502   -1.451595    0.246288 O.3       1 <1>        -0.390009 
      2 O           1.419648   -1.908163    0.295198 O.3       1 <1>        -0.330031 
      3 O           2.120661   -0.165850   -0.925839 O.2       1 <1>        -0.263341 
      4 N           0.712055    1.689029    0.544142 N.3       1 <1>        -0.317282 
      5 C          -1.036250   -0.049619    0.167419 C.3       1 <1>         0.076761 
      6 C           0.400513    0.245784    0.685149 C.3       1 <1>         0.117267 
      7 C          -1.197067    0.376711   -1.313925 C.3       1 <1>        -0.036982 
      8 C           1.389501   -0.620549   -0.059253 C.2       1 <1>         0.279077 
      9 H           0.461633   -0.038209    1.749915 H         1 <1>         0.058821 
     10 H          -1.760789    0.524825    0.772587 H         1 <1>         0.061101 
     11 H          -0.977297    1.447803   -1.441176 H         1 <1>         0.025505 
     12 H          -2.230773    0.188688   -1.643497 H         1 <1>         0.025505 
     13 H          -0.518707   -0.204211   -1.956870 H         1 <1>         0.025505 
     14 H           1.745754    1.883704    0.798710 H         1 <1>         0.118997 
     15 H           0.066560    2.289554    1.171660 H         1 <1>         0.118997 
     16 H          -1.292792   -1.807139    1.127471 H         1 <1>         0.209849 
     17 H           2.051655   -2.400263   -0.217280 H         1 <1>         0.220260 
@<TRIPOS>BOND
     1    5    1 1    
     2    1   16 1    
     3    8    2 1    
     4    2   17 1    
     5    8    3 2    
     6    6    4 1    
     7    4   14 1    
     8    4   15 1    
     9    6    5 1    
    10    5    7 1    
    11    5   10 1    
    12    6    8 1    
    13    6    9 1    
    14    7   11 1    
    15    7   12 1    
    16    7   13 1    
@<TRIPOS>SUBSTRUCTURE
     1 ****        1 TEMP              0 ****  ****    0 ROOT 
@<TRIPOS>NORMAL
@<TRIPOS>FF_PBC
FORCE_FIELD_SETUP_FEATURE Force Field Setup information
v1.0  0 0.000000 0.000000 0.000000 0.000000 0.000000 0.000000 NONE 0 0 0 0 1 0 0 0 0 0 0 0 0
