@<TRIPOS>MOLECULE
MOL002661
   71    76     1     1     0
SMALL
GASTEIGER


@<TRIPOS>ATOM
      1 C           2.290732   -0.038883   -0.137186 C.3       1 <1>         0.126121 
      2 C           1.020773   -0.953785   -0.005557 C.3       1 <1>         0.062036 
      3 C           2.217553    1.482465   -0.396734 C.3       1 <1>         0.032072 
      4 C           3.662499   -0.658334   -0.644644 C.3       1 <1>         0.174500 
      5 O           3.362795   -0.399367    0.704190 O.3       1 <1>        -0.352477 
      6 C          -0.254319   -0.044879    0.163446 C.3       1 <1>        -0.017998 
      7 C           0.762188   -1.725079   -1.268053 C.2       1 <1>         0.142703 
      8 C           1.329788   -1.972131    1.150539 C.3       1 <1>        -0.049756 
      9 C           3.634003    2.105107   -0.130259 C.3       1 <1>         0.109557 
     10 C           1.108071    2.092038    0.531441 C.3       1 <1>        -0.041851 
     11 C           1.926094    1.735531   -1.916531 C.3       1 <1>        -0.054077 
     12 C           4.708163    0.273008   -1.208492 C.2       1 <1>         0.294796 
     13 C          -1.694754   -0.724131    0.210866 C.3       1 <1>         0.004834 
     14 C           0.169272    1.038420    1.208084 C.3       1 <1>        -0.047965 
     15 C          -0.464447   -2.598854   -1.271153 C.3       1 <1>         0.012511 
     16 O           1.500611   -1.631319   -2.234721 O.2       1 <1>        -0.296707 
     17 C           4.189842    2.078383    1.304823 C.ar      1 <1>         0.086373 
     18 O           4.648651    1.607658   -1.026142 O.3       1 <1>        -0.304178 
     19 O           5.632211   -0.187172   -1.853337 O.2       1 <1>        -0.261946 
     20 C          -1.766115   -1.782011   -0.985263 C.3       1 <1>         0.002921 
     21 C          -2.828800    0.376117   -0.060801 C.3       1 <1>         0.082996 
     22 C          -1.886394   -1.405027    1.604968 C.3       1 <1>        -0.056530 
     23 C           3.894343    3.028309    2.389739 C.ar      1 <1>         0.048517 
     24 C           5.092542    1.205358    1.866350 C.ar      1 <1>         0.326709 
     25 C          -3.047868   -2.704848   -1.086040 C.3       1 <1>         0.077088 
     26 C          -4.313711    0.025955    0.246754 C.3       1 <1>         0.060552 
     27 O          -2.702829    1.622063    0.658224 O.3       1 <1>        -0.311012 
     28 C           4.604950    2.612065    3.471099 C.ar      1 <1>         0.321428 
     29 O           5.367432    1.480997    3.208698 O.2       1 <1>        -0.220612 
     30 O          -4.032038   -2.315903   -0.110666 O.3       1 <1>        -0.308746 
     31 C          -3.601543   -2.739800   -2.547885 C.3       1 <1>        -0.035197 
     32 C          -2.819515   -4.197043   -0.687328 C.3       1 <1>        -0.035197 
     33 C          -4.723879   -1.234400   -0.442563 C.2       1 <1>         0.265183 
     34 C          -2.212189    2.669099   -0.028870 C.2       1 <1>         0.259324 
     35 O          -5.644229   -1.272306   -1.241672 O.2       1 <1>        -0.264862 
     36 C          -2.214219    3.965942    0.729851 C.3       1 <1>         0.021443 
     37 O          -1.810321    2.623556   -1.181455 O.2       1 <1>        -0.265274 
     38 H          -0.375807    0.518555   -0.765358 H         1 <1>         0.031720 
     39 H          -1.761033   -1.154762   -1.892003 H         1 <1>         0.033875 
     40 H           3.695004   -1.729158   -0.883962 H         1 <1>         0.073137 
     41 H           0.526783   -2.663909    1.398146 H         1 <1>         0.024010 
     42 H           1.609801   -1.482289    2.095287 H         1 <1>         0.024010 
     43 H           2.175895   -2.611311    0.851007 H         1 <1>         0.024010 
     44 H           3.571909    3.182158   -0.353393 H         1 <1>         0.066173 
     45 H           1.537276    2.678529    1.350820 H         1 <1>         0.027244 
     46 H           0.507749    2.796221   -0.061290 H         1 <1>         0.027244 
     47 H           1.906244    2.817570   -2.124405 H         1 <1>         0.023689 
     48 H           2.699715    1.289802   -2.559086 H         1 <1>         0.023689 
     49 H           0.974254    1.323170   -2.264378 H         1 <1>         0.023689 
     50 H          -0.664629    1.551444    1.702776 H         1 <1>         0.026860 
     51 H           0.726310    0.576770    2.038348 H         1 <1>         0.026860 
     52 H          -0.523493   -3.079058   -2.264004 H         1 <1>         0.034553 
     53 H          -0.316083   -3.403397   -0.542318 H         1 <1>         0.034553 
     54 H          -2.891792    0.574963   -1.143869 H         1 <1>         0.061259 
     55 H          -1.278271   -0.914186    2.377124 H         1 <1>         0.023606 
     56 H          -1.623004   -2.465169    1.568973 H         1 <1>         0.023606 
     57 H          -2.914353   -1.392114    1.973471 H         1 <1>         0.023606 
     58 H           3.247045    3.897463    2.350159 H         1 <1>         0.071077 
     59 H           5.560422    0.386149    1.334754 H         1 <1>         0.176354 
     60 H          -4.962521    0.837585   -0.127757 H         1 <1>         0.039194 
     61 H          -4.523708   -0.035108    1.323192 H         1 <1>         0.039194 
     62 H           4.582126    3.118238    4.434205 H         1 <1>         0.175965 
     63 H          -4.544228   -3.304932   -2.593102 H         1 <1>         0.025746 
     64 H          -2.880949   -3.228042   -3.221422 H         1 <1>         0.025746 
     65 H          -3.791912   -1.730840   -2.941712 H         1 <1>         0.025746 
     66 H          -2.150009   -4.729218   -1.381295 H         1 <1>         0.025746 
     67 H          -2.428116   -4.299664    0.333368 H         1 <1>         0.025746 
     68 H          -3.785241   -4.726350   -0.710404 H         1 <1>         0.025746 
     69 H          -3.152275    4.498819    0.513665 H         1 <1>         0.033023 
     70 H          -1.367186    4.597764    0.421530 H         1 <1>         0.033023 
     71 H          -2.148012    3.779932    1.813428 H         1 <1>         0.033023 
@<TRIPOS>BOND
     1    1    2 1    
     2    1    3 1    
     3    1    4 1    
     4    1    5 1    
     5    2    6 1    
     6    2    7 1    
     7    2    8 1    
     8    3    9 1    
     9    3   10 1    
    10    3   11 1    
    11    4    5 1    
    12    4   12 1    
    13    4   40 1    
    14    6   13 1    
    15    6   14 1    
    16    6   38 1    
    17    7   15 1    
    18    7   16 2    
    19    8   41 1    
    20    8   42 1    
    21    8   43 1    
    22    9   17 1    
    23    9   18 1    
    24    9   44 1    
    25   10   14 1    
    26   10   45 1    
    27   10   46 1    
    28   11   47 1    
    29   11   48 1    
    30   11   49 1    
    31   12   18 1    
    32   12   19 2    
    33   13   20 1    
    34   13   21 1    
    35   13   22 1    
    36   14   50 1    
    37   14   51 1    
    38   15   20 1    
    39   15   52 1    
    40   15   53 1    
    41   17   23 1    
    42   17   24 2    
    43   20   25 1    
    44   20   39 1    
    45   21   26 1    
    46   21   27 1    
    47   21   54 1    
    48   22   55 1    
    49   22   56 1    
    50   22   57 1    
    51   23   28 2    
    52   23   58 1    
    53   24   29 1    
    54   24   59 1    
    55   25   30 1    
    56   25   31 1    
    57   25   32 1    
    58   26   33 1    
    59   26   60 1    
    60   26   61 1    
    61   27   34 1    
    62   28   29 1    
    63   28   62 1    
    64   30   33 1    
    65   31   63 1    
    66   31   64 1    
    67   31   65 1    
    68   32   66 1    
    69   32   67 1    
    70   32   68 1    
    71   33   35 2    
    72   34   36 1    
    73   34   37 2    
    74   36   69 1    
    75   36   70 1    
    76   36   71 1    
@<TRIPOS>SUBSTRUCTURE
     1 ****        1 TEMP              0 ****  ****    0 ROOT 
@<TRIPOS>NORMAL
@<TRIPOS>FF_PBC
FORCE_FIELD_SETUP_FEATURE Force Field Setup information
v1.0  0 0.000000 0.000000 0.000000 0.000000 0.000000 0.000000 NONE 0 0 0 0 1 0 0 0 0 0 0 0 0
