@<TRIPOS>MOLECULE
MOL002722
   36    36     1     1     0
SMALL
GASTEIGER


@<TRIPOS>ATOM
      1 O           1.726865    0.446238    0.692933 O.3       1 <1>        -0.379654 
      2 O          -0.620671    3.448062   -2.505179 O.3       1 <1>        -0.388042 
      3 O           1.739976   -3.791883    2.173478 O.2       1 <1>        -0.292661 
      4 C           0.892597   -1.498711   -0.481545 C.3       1 <1>         0.008343 
      5 C           0.513607   -0.281414    0.425145 C.3       1 <1>         0.110840 
      6 C           1.920896   -2.376647    0.290455 C.3       1 <1>         0.018235 
      7 C          -0.008611   -0.737649    1.778339 C.2       1 <1>        -0.033891 
      8 C           1.552577   -1.005108   -1.804363 C.3       1 <1>        -0.056178 
      9 C          -0.357182   -2.360477   -0.843149 C.3       1 <1>        -0.056178 
     10 C          -0.502463    0.596875   -0.278395 C.2       1 <1>        -0.049771 
     11 C           1.376964   -2.757142    1.638620 C.2       1 <1>         0.156765 
     12 C           0.405389   -1.889995    2.321763 C.2       1 <1>        -0.017210 
     13 C          -1.267005    2.623479   -1.519466 C.3       1 <1>         0.070647 
     14 C          -0.210809    1.767948   -0.862801 C.2       1 <1>        -0.057086 
     15 C          -0.994015    0.162560    2.494271 C.3       1 <1>        -0.040377 
     16 C          -1.937588    3.493485   -0.425679 C.3       1 <1>        -0.035321 
     17 H           1.602004    1.191984    1.270872 H         1 <1>         0.211064 
     18 H          -1.223111    4.026073   -2.962390 H         1 <1>         0.210194 
     19 H           2.145305   -3.289859   -0.282277 H         1 <1>         0.035125 
     20 H           2.866603   -1.838309    0.455256 H         1 <1>         0.035125 
     21 H           1.859483   -1.862146   -2.423868 H         1 <1>         0.023618 
     22 H           0.852126   -0.394258   -2.393328 H         1 <1>         0.023618 
     23 H           2.446451   -0.397052   -1.597153 H         1 <1>         0.023618 
     24 H          -0.894853   -2.693497    0.056182 H         1 <1>         0.023618 
     25 H          -0.054405   -3.255817   -1.407517 H         1 <1>         0.023618 
     26 H          -1.060534   -1.799736   -1.475164 H         1 <1>         0.023618 
     27 H          -1.537196    0.256184   -0.307447 H         1 <1>         0.060147 
     28 H           0.033993   -2.220896    3.291312 H         1 <1>         0.065274 
     29 H          -2.022243    1.981381   -2.008720 H         1 <1>         0.063466 
     30 H           0.809913    2.151402   -0.873789 H         1 <1>         0.059523 
     31 H          -1.031131   -0.052770    3.572777 H         1 <1>         0.027546 
     32 H          -0.714247    1.220233    2.376181 H         1 <1>         0.027546 
     33 H          -2.003468    0.012795    2.084118 H         1 <1>         0.027546 
     34 H          -2.398954    2.854970    0.344602 H         1 <1>         0.025756 
     35 H          -2.719824    4.129521   -0.868429 H         1 <1>         0.025756 
     36 H          -1.186138    4.139878    0.054354 H         1 <1>         0.025756 
@<TRIPOS>BOND
     1    5    1 1    
     2    1   17 1    
     3   13    2 1    
     4    2   18 1    
     5   11    3 2    
     6    5    4 1    
     7    4    6 1    
     8    4    8 1    
     9    4    9 1    
    10    5    7 1    
    11   10    5 1    
    12    6   11 1    
    13    6   19 1    
    14    6   20 1    
    15    7   12 2    
    16    7   15 1    
    17    8   21 1    
    18    8   22 1    
    19    8   23 1    
    20    9   24 1    
    21    9   25 1    
    22    9   26 1    
    23   14   10 2    
    24   10   27 1    
    25   12   11 1    
    26   12   28 1    
    27   13   14 1    
    28   13   16 1    
    29   13   29 1    
    30   14   30 1    
    31   15   31 1    
    32   15   32 1    
    33   15   33 1    
    34   16   34 1    
    35   16   35 1    
    36   16   36 1    
@<TRIPOS>SUBSTRUCTURE
     1 ****        2 TEMP              0 ****  ****    0 ROOT 
@<TRIPOS>NORMAL
@<TRIPOS>FF_PBC
FORCE_FIELD_SETUP_FEATURE Force Field Setup information
v1.0  0 0.000000 0.000000 0.000000 0.000000 0.000000 0.000000 NONE 0 0 0 0 1 0 0 0 0 0 0 0 0
