@<TRIPOS>MOLECULE
MOL004808
   49    51     1     1     0
SMALL
GASTEIGER


@<TRIPOS>ATOM
      1 O          -5.472170   -1.629458    0.836116 O.3       1 <1>        -0.359457 
      2 O          -1.021535   -0.689069    2.688641 O.3       1 <1>        -0.342797 
      3 O          -2.439629    0.604425   -0.930485 O.2       1 <1>        -0.291153 
      4 O          -8.011877    2.583460    0.775348 O.3       1 <1>        -0.359750 
      5 O          -0.067142    0.276631   -1.982376 O.3       1 <1>        -0.358684 
      6 C          -2.921054   -0.217662    1.235220 C.3       1 <1>         0.073469 
      7 C          -4.256262    0.528025    1.092989 C.ar      1 <1>        -0.004741 
      8 C          -5.516268   -0.233767    0.906673 C.ar      1 <1>         0.078937 
      9 C          -2.198235    0.124668    2.561950 C.3       1 <1>         0.068180 
     10 C          -6.737054    0.454645    0.798696 C.ar      1 <1>        -0.001881 
     11 C          -2.002571    0.112102    0.097742 C.2       1 <1>         0.177737 
     12 C          -0.531786   -0.179292    0.291560 C.ar      1 <1>         0.078072 
     13 C          -4.293051    1.930190    1.129828 C.ar      1 <1>        -0.052941 
     14 C          -0.095401   -0.576861    1.650426 C.ar      1 <1>         0.091635 
     15 C          -6.778379    1.932950    0.866569 C.ar      1 <1>         0.075036 
     16 C          -5.580855    2.651571    1.020863 C.ar      1 <1>        -0.031501 
     17 C           0.358541   -0.085432   -0.707993 C.ar      1 <1>         0.091457 
     18 C           1.194988   -0.831252    1.883148 C.ar      1 <1>        -0.000526 
     19 C           1.799483   -0.363334   -0.460452 C.ar      1 <1>         0.016812 
     20 C           2.194377   -0.702112    0.797314 C.ar      1 <1>         0.084198 
     21 C           2.772316   -0.246338   -1.647551 C.3       1 <1>        -0.004331 
     22 C           3.973929   -1.163698   -1.611792 C.2       1 <1>        -0.080815 
     23 C           5.129873   -0.931551   -2.258784 C.2       1 <1>        -0.079306 
     24 O           3.538126   -0.935595    1.090709 O.3       1 <1>        -0.347465 
     25 C           5.341891    0.238918   -3.196022 C.3       1 <1>        -0.044040 
     26 C           6.321255   -1.851607   -2.091513 C.3       1 <1>        -0.044040 
     27 C           4.320077    0.240485    1.361066 C.3       1 <1>         0.043040 
     28 H          -6.239467   -2.026178    0.437970 H         1 <1>         0.217326 
     29 H          -7.970807    3.522028    0.923697 H         1 <1>         0.217315 
     30 H           0.247312    1.143059   -2.212527 H         1 <1>         0.217354 
     31 H          -3.082088   -1.304743    1.206415 H         1 <1>         0.045323 
     32 H          -2.856664   -0.080431    3.420329 H         1 <1>         0.057526 
     33 H          -1.900027    1.183478    2.605360 H         1 <1>         0.057526 
     34 H          -7.666463   -0.087727    0.662933 H         1 <1>         0.066910 
     35 H          -3.379249    2.502748    1.237729 H         1 <1>         0.062208 
     36 H          -5.586719    3.736163    1.065294 H         1 <1>         0.064331 
     37 H           1.514665   -1.133441    2.873853 H         1 <1>         0.066948 
     38 H           2.239947   -0.469302   -2.585914 H         1 <1>         0.035721 
     39 H           3.081121    0.809211   -1.667754 H         1 <1>         0.035721 
     40 H           3.881251   -2.074632   -1.021000 H         1 <1>         0.057473 
     41 H           4.403602    0.632420   -3.612389 H         1 <1>         0.027427 
     42 H           5.863261    1.048371   -2.663676 H         1 <1>         0.027427 
     43 H           5.962464   -0.079584   -4.047726 H         1 <1>         0.027427 
     44 H           6.473840   -2.434020   -3.013755 H         1 <1>         0.027427 
     45 H           6.199689   -2.551924   -1.251800 H         1 <1>         0.027427 
     46 H           7.223289   -1.249861   -1.900639 H         1 <1>         0.027427 
     47 H           5.348028   -0.085700    1.576239 H         1 <1>         0.052870 
     48 H           3.928900    0.779701    2.236314 H         1 <1>         0.052870 
     49 H           4.343272    0.919817    0.496359 H         1 <1>         0.052870 
@<TRIPOS>BOND
     1    8    1 1    
     2    1   28 1    
     3    2    9 1    
     4   14    2 1    
     5   11    3 2    
     6   15    4 1    
     7    4   29 1    
     8   17    5 1    
     9    5   30 1    
    10    6    7 1    
    11    6    9 1    
    12   11    6 1    
    13    6   31 1    
    14    7    8 1    
    15    7   13 2    
    16    8   10 2    
    17    9   32 1    
    18    9   33 1    
    19   10   15 1    
    20   10   34 1    
    21   12   11 1    
    22   12   14 1    
    23   12   17 2    
    24   13   16 1    
    25   13   35 1    
    26   14   18 2    
    27   15   16 2    
    28   16   36 1    
    29   17   19 1    
    30   18   20 1    
    31   18   37 1    
    32   19   20 2    
    33   19   21 1    
    34   20   24 1    
    35   21   22 1    
    36   21   38 1    
    37   21   39 1    
    38   22   23 2    
    39   22   40 1    
    40   23   25 1    
    41   23   26 1    
    42   24   27 1    
    43   25   41 1    
    44   25   42 1    
    45   25   43 1    
    46   26   44 1    
    47   26   45 1    
    48   26   46 1    
    49   27   47 1    
    50   27   48 1    
    51   27   49 1    
@<TRIPOS>SUBSTRUCTURE
     1 ****        6 TEMP              0 ****  ****    0 ROOT 
@<TRIPOS>NORMAL
@<TRIPOS>FF_PBC
FORCE_FIELD_SETUP_FEATURE Force Field Setup information
v1.0  0 0.000000 0.000000 0.000000 0.000000 0.000000 0.000000 NONE 0 0 0 0 1 0 0 0 0 0 0 0 0
