@<TRIPOS>MOLECULE
MOL004583
  143   150     1     1     0
SMALL
GASTEIGER


@<TRIPOS>ATOM
      1 O          -2.544061   -2.224266    0.365805 O.3       1 <1>        -0.375443 
      2 O           1.582386   -1.008601   -2.165931 O.3       1 <1>        -0.344892 
      3 O           0.238136   -0.855173    6.761332 O.3       1 <1>        -0.391114 
      4 O          -3.829949    0.866307    4.396379 O.3       1 <1>        -0.394355 
      5 O           2.432053    1.049206   -2.966539 O.3       1 <1>        -0.340503 
      6 O           2.683204   -0.207520   -5.626595 O.3       1 <1>        -0.384104 
      7 O          -0.652074   -0.443798   -3.946489 O.3       1 <1>        -0.386391 
      8 O           1.393508    2.131847   -5.594919 O.3       1 <1>        -0.340141 
      9 O           0.887375    2.013508   -0.688586 O.3       1 <1>        -0.346049 
     10 O           0.300388    4.254164   -5.842293 O.3       1 <1>        -0.343069 
     11 O          -1.056192    2.811152    0.446195 O.3       1 <1>        -0.340532 
     12 O           3.001232    5.275458   -6.660199 O.3       1 <1>        -0.384104 
     13 O           2.924450    4.001394   -9.184713 O.3       1 <1>        -0.386402 
     14 O           0.273435    1.806831    2.939072 O.3       1 <1>        -0.384104 
     15 O           0.970625    5.855830   -8.329027 O.3       1 <1>        -0.386579 
     16 O           2.209836    3.841292    2.962999 O.3       1 <1>        -0.386401 
     17 O          -0.565135    4.349084    2.997141 O.3       1 <1>        -0.386488 
     18 O          -0.062262    6.245029   -0.650881 O.3       1 <1>        -0.392366 
     19 C          -0.083616   -3.778700    2.926665 C.3       1 <1>        -0.016923 
     20 C          -0.766933   -3.529403    1.508961 C.3       1 <1>         0.000718 
     21 C           0.007168   -3.954373    0.155741 C.3       1 <1>        -0.022591 
     22 C          -0.555931   -2.851038    4.164774 C.3       1 <1>        -0.002626 
     23 C           1.591735   -3.898074    0.187410 C.3       1 <1>        -0.027744 
     24 C           1.454756   -3.610737    2.758477 C.3       1 <1>        -0.046184 
     25 C           2.096302   -4.382347    1.581164 C.3       1 <1>        -0.048607 
     26 C           2.363215   -2.682963   -0.501191 C.3       1 <1>        -0.005228 
     27 C          -1.939112   -2.270366    3.943800 C.2       1 <1>        -0.060761 
     28 C          -1.592681   -2.214597    1.460670 C.3       1 <1>         0.080545 
     29 C          -0.440972   -3.089902   -1.071949 C.3       1 <1>        -0.044629 
     30 C           0.148789   -1.458985    4.368348 C.3       1 <1>        -0.016608 
     31 C          -2.738497   -1.768869    5.134890 C.3       1 <1>        -0.009191 
     32 C          -2.019499   -0.446872    5.579542 C.3       1 <1>         0.026276 
     33 C          -0.435816   -0.550667    5.517277 C.3       1 <1>         0.064286 
     34 C          -0.391949   -5.278396    3.296249 C.3       1 <1>        -0.058408 
     35 C           1.832193   -2.424544   -1.969817 C.3       1 <1>         0.067174 
     36 C          -2.412134   -2.049088    2.710764 C.2       1 <1>        -0.055289 
     37 C          -0.410620   -5.431659   -0.238391 C.3       1 <1>        -0.058927 
     38 C           0.512858   -3.171512   -2.287952 C.3       1 <1>        -0.025469 
     39 C          -0.332201   -3.617184    5.517519 C.3       1 <1>        -0.055240 
     40 C          -3.237569   -2.675816    6.299233 C.3       1 <1>        -0.045830 
     41 C          -2.525938   -0.093120    7.022175 C.3       1 <1>        -0.042367 
     42 C           3.896951   -2.990884   -0.656494 C.3       1 <1>        -0.057181 
     43 C           2.326013   -1.355026    0.324573 C.3       1 <1>        -0.057181 
     44 C          -2.410081    0.699386    4.573111 C.3       1 <1>         0.052729 
     45 C          -4.337109   -1.929988    7.117956 C.3       1 <1>        -0.052480 
     46 C          -4.033104   -0.403297    7.248008 C.3       1 <1>        -0.052365 
     47 C           2.315714   -0.362339   -3.230140 C.3       1 <1>         0.188230 
     48 C          -3.011245   -0.923752   -0.061812 C.3       1 <1>         0.037218 
     49 C           1.713883   -0.619369   -4.637672 C.3       1 <1>         0.134131 
     50 C           0.362396    0.135938   -4.789649 C.3       1 <1>         0.114426 
     51 C           1.202580    1.792945   -3.078083 C.3       1 <1>         0.113729 
     52 C           0.575564    1.644871   -4.498537 C.3       1 <1>         0.118420 
     53 C           0.216404    1.578929   -1.892536 C.3       1 <1>         0.079566 
     54 C           1.556220    3.563147   -5.676362 C.3       1 <1>         0.188322 
     55 C           2.577854    3.902951   -6.791254 C.3       1 <1>         0.134121 
     56 C           0.078459    1.922607    0.496462 C.3       1 <1>         0.188012 
     57 C           1.955825    3.630881   -8.181747 C.3       1 <1>         0.113972 
     58 C          -0.320829    4.098116   -7.137846 C.3       1 <1>         0.087307 
     59 C           0.975470    2.168375    1.734190 C.3       1 <1>         0.134113 
     60 C           0.644273    4.450595   -8.309512 C.3       1 <1>         0.109478 
     61 C           1.420866    3.650636    1.770228 C.3       1 <1>         0.114061 
     62 C          -0.726822    4.217124    0.523731 C.3       1 <1>         0.113005 
     63 C           0.156325    4.550440    1.762755 C.3       1 <1>         0.111896 
     64 C          -1.026812    2.728048   -7.333049 C.3       1 <1>        -0.036060 
     65 C          -0.164522    4.815245   -0.795735 C.3       1 <1>         0.073015 
     66 H           0.175629   -0.195397    7.446259 H         1 <1>         0.209802 
     67 H          -4.061565    1.557622    3.782180 H         1 <1>         0.209421 
     68 H           2.387540   -0.319138   -6.524268 H         1 <1>         0.210110 
     69 H          -1.514833   -0.054899   -4.054393 H         1 <1>         0.210005 
     70 H           3.554300    5.540696   -7.389511 H         1 <1>         0.210110 
     71 H           2.607407    3.882498  -10.074430 H         1 <1>         0.210005 
     72 H           0.768481    2.090801    3.702443 H         1 <1>         0.210110 
     73 H           0.217826    6.429228   -8.429428 H         1 <1>         0.210002 
     74 H           2.510551    4.737969    3.072468 H         1 <1>         0.210005 
     75 H          -1.341043    4.893429    3.083799 H         1 <1>         0.210004 
     76 H           0.253144    6.683695   -1.436684 H         1 <1>         0.209508 
     77 H          -1.666899   -4.162351    1.534439 H         1 <1>         0.033983 
     78 H           1.930170   -4.703926   -0.485351 H         1 <1>         0.031211 
     79 H           1.652058   -2.556350    2.590984 H         1 <1>         0.027097 
     80 H           1.984487   -3.903654    3.677597 H         1 <1>         0.027097 
     81 H           3.187306   -4.289582    1.659583 H         1 <1>         0.026846 
     82 H           1.890593   -5.453195    1.723692 H         1 <1>         0.026846 
     83 H          -0.900148   -1.369222    1.383251 H         1 <1>         0.064325 
     84 H          -1.449708   -3.383967   -1.406343 H         1 <1>         0.027150 
     85 H          -0.449628   -2.019447   -0.836046 H         1 <1>         0.027150 
     86 H           1.207999   -1.608487    4.631969 H         1 <1>         0.029875 
     87 H           0.132045   -0.887761    3.427278 H         1 <1>         0.029875 
     88 H          -3.727888   -1.479512    4.750307 H         1 <1>         0.035270 
     89 H          -0.024871    0.453067    5.307616 H         1 <1>         0.059982 
     90 H          -0.274315   -5.972878    2.468603 H         1 <1>         0.023543 
     91 H           0.257198   -5.689258    4.081121 H         1 <1>         0.023543 
     92 H          -1.442886   -5.378440    3.609104 H         1 <1>         0.023543 
     93 H           2.540346   -2.814711   -2.723262 H         1 <1>         0.060224 
     94 H          -3.425892   -1.677921    2.574849 H         1 <1>         0.059746 
     95 H          -1.495174   -5.600874   -0.159611 H         1 <1>         0.023526 
     96 H           0.098593   -6.201969    0.347375 H         1 <1>         0.023526 
     97 H          -0.165236   -5.698165   -1.271859 H         1 <1>         0.023526 
     98 H           0.026261   -2.694920   -3.151918 H         1 <1>         0.029047 
     99 H           0.728951   -4.201785   -2.600927 H         1 <1>         0.029047 
    100 H          -1.062009   -4.423599    5.669578 H         1 <1>         0.023830 
    101 H          -0.386694   -2.995181    6.405909 H         1 <1>         0.023830 
    102 H           0.680530   -4.035148    5.579340 H         1 <1>         0.023830 
    103 H          -3.638806   -3.621299    5.897043 H         1 <1>         0.027117 
    104 H          -2.459242   -2.930523    7.024071 H         1 <1>         0.027117 
    105 H          -2.019297   -0.700715    7.785818 H         1 <1>         0.027231 
    106 H          -2.314599    0.964394    7.248181 H         1 <1>         0.027231 
    107 H           4.382302   -2.200558   -1.251072 H         1 <1>         0.023587 
    108 H           4.441218   -3.025800    0.296784 H         1 <1>         0.023587 
    109 H           4.067143   -3.947867   -1.173543 H         1 <1>         0.023587 
    110 H           1.298798   -1.085229    0.588863 H         1 <1>         0.023587 
    111 H           2.931693   -1.419926    1.237324 H         1 <1>         0.023587 
    112 H           2.766669   -0.511752   -0.228658 H         1 <1>         0.023587 
    113 H          -2.000101    1.663378    4.921296 H         1 <1>         0.056353 
    114 H          -1.970278    0.488005    3.584324 H         1 <1>         0.056353 
    115 H          -4.418043   -2.394213    8.116736 H         1 <1>         0.026547 
    116 H          -5.318233   -2.055748    6.628244 H         1 <1>         0.026547 
    117 H          -4.337055   -0.056162    8.250708 H         1 <1>         0.026548 
    118 H          -4.634442    0.169672    6.527643 H         1 <1>         0.026548 
    119 H           3.367295   -0.692082   -3.219070 H         1 <1>         0.093750 
    120 H          -2.196899   -0.334911   -0.506215 H         1 <1>         0.052375 
    121 H          -3.762907   -1.098451   -0.845164 H         1 <1>         0.052375 
    122 H          -3.479997   -0.323920    0.731111 H         1 <1>         0.052375 
    123 H           1.539737   -1.699566   -4.765068 H         1 <1>         0.067095 
    124 H           0.029752    0.008557   -5.833796 H         1 <1>         0.064768 
    125 H           1.510125    2.835254   -2.934493 H         1 <1>         0.064687 
    126 H          -0.397935    2.157483   -4.522017 H         1 <1>         0.065052 
    127 H          -0.100629    0.534795   -1.798134 H         1 <1>         0.058744 
    128 H          -0.690195    2.180988   -2.055679 H         1 <1>         0.058744 
    129 H           2.025027    3.964397   -4.767996 H         1 <1>         0.093751 
    130 H           3.462141    3.252494   -6.667234 H         1 <1>         0.067095 
    131 H          -0.309991    0.899735    0.602921 H         1 <1>         0.093741 
    132 H           1.752522    2.550804   -8.274152 H         1 <1>         0.064757 
    133 H          -1.132149    4.845194   -7.141566 H         1 <1>         0.062075 
    134 H           1.874255    1.531741    1.650894 H         1 <1>         0.067095 
    135 H           0.170167    4.200821   -9.274636 H         1 <1>         0.064584 
    136 H           2.054989    3.857439    0.891663 H         1 <1>         0.064758 
    137 H          -1.694813    4.724734    0.665466 H         1 <1>         0.064668 
    138 H           0.480206    5.605168    1.725534 H         1 <1>         0.064673 
    139 H          -1.596324    2.726570   -8.275607 H         1 <1>         0.025536 
    140 H          -1.736910    2.552240   -6.511149 H         1 <1>         0.025536 
    141 H          -0.318093    1.893098   -7.368868 H         1 <1>         0.025536 
    142 H           0.823792    4.405237   -1.045278 H         1 <1>         0.058370 
    143 H          -0.860819    4.579002   -1.617698 H         1 <1>         0.058370 
@<TRIPOS>BOND
     1   28    1 1    
     2    1   48 1    
     3    2   35 1    
     4   47    2 1    
     5   33    3 1    
     6    3   66 1    
     7   44    4 1    
     8    4   67 1    
     9    5   47 1    
    10   51    5 1    
    11   49    6 1    
    12    6   68 1    
    13   50    7 1    
    14    7   69 1    
    15   52    8 1    
    16    8   54 1    
    17    9   53 1    
    18   56    9 1    
    19   54   10 1    
    20   10   58 1    
    21   11   56 1    
    22   62   11 1    
    23   55   12 1    
    24   12   70 1    
    25   57   13 1    
    26   13   71 1    
    27   59   14 1    
    28   14   72 1    
    29   60   15 1    
    30   15   73 1    
    31   61   16 1    
    32   16   74 1    
    33   63   17 1    
    34   17   75 1    
    35   65   18 1    
    36   18   76 1    
    37   20   19 1    
    38   19   22 1    
    39   24   19 1    
    40   19   34 1    
    41   21   20 1    
    42   20   28 1    
    43   20   77 1    
    44   23   21 1    
    45   29   21 1    
    46   21   37 1    
    47   22   27 1    
    48   22   30 1    
    49   22   39 1    
    50   23   25 1    
    51   26   23 1    
    52   23   78 1    
    53   25   24 1    
    54   24   79 1    
    55   24   80 1    
    56   25   81 1    
    57   25   82 1    
    58   35   26 1    
    59   26   42 1    
    60   26   43 1    
    61   27   31 1    
    62   36   27 2    
    63   28   36 1    
    64   28   83 1    
    65   38   29 1    
    66   29   84 1    
    67   29   85 1    
    68   30   33 1    
    69   30   86 1    
    70   30   87 1    
    71   31   32 1    
    72   31   40 1    
    73   31   88 1    
    74   33   32 1    
    75   32   41 1    
    76   32   44 1    
    77   33   89 1    
    78   34   90 1    
    79   34   91 1    
    80   34   92 1    
    81   35   38 1    
    82   35   93 1    
    83   36   94 1    
    84   37   95 1    
    85   37   96 1    
    86   37   97 1    
    87   38   98 1    
    88   38   99 1    
    89   39  100 1    
    90   39  101 1    
    91   39  102 1    
    92   40   45 1    
    93   40  103 1    
    94   40  104 1    
    95   41   46 1    
    96   41  105 1    
    97   41  106 1    
    98   42  107 1    
    99   42  108 1    
   100   42  109 1    
   101   43  110 1    
   102   43  111 1    
   103   43  112 1    
   104   44  113 1    
   105   44  114 1    
   106   45   46 1    
   107   45  115 1    
   108   45  116 1    
   109   46  117 1    
   110   46  118 1    
   111   47   49 1    
   112   47  119 1    
   113   48  120 1    
   114   48  121 1    
   115   48  122 1    
   116   50   49 1    
   117   49  123 1    
   118   52   50 1    
   119   50  124 1    
   120   51   52 1    
   121   53   51 1    
   122   51  125 1    
   123   52  126 1    
   124   53  127 1    
   125   53  128 1    
   126   54   55 1    
   127   54  129 1    
   128   55   57 1    
   129   55  130 1    
   130   56   59 1    
   131   56  131 1    
   132   57   60 1    
   133   57  132 1    
   134   58   60 1    
   135   58   64 1    
   136   58  133 1    
   137   61   59 1    
   138   59  134 1    
   139   60  135 1    
   140   63   61 1    
   141   61  136 1    
   142   62   63 1    
   143   62   65 1    
   144   62  137 1    
   145   63  138 1    
   146   64  139 1    
   147   64  140 1    
   148   64  141 1    
   149   65  142 1    
   150   65  143 1    
@<TRIPOS>SUBSTRUCTURE
     1 ****       19 TEMP              0 ****  ****    0 ROOT 
@<TRIPOS>NORMAL
@<TRIPOS>FF_PBC
FORCE_FIELD_SETUP_FEATURE Force Field Setup information
v1.0  0 0.000000 0.000000 0.000000 0.000000 0.000000 0.000000 NONE 0 0 0 0 1 0 0 0 0 0 0 0 0
