@<TRIPOS>MOLECULE
MOL000010
   71    75     1     1     0
SMALL
GASTEIGER


@<TRIPOS>ATOM
      1 C           2.381985    2.578945    0.918836 C.ar      1 <1>         0.098813 
      2 C           3.159626    2.483069    2.170845 C.ar      1 <1>         0.081945 
      3 O           2.551599    3.668946    0.060809 O.3       1 <1>        -0.307712 
      4 C           1.467467    1.574364    0.583648 C.ar      1 <1>        -0.000161 
      5 C           4.111292    3.622407    2.427936 C.2       1 <1>         0.193509 
      6 C           2.992005    1.380589    3.039652 C.ar      1 <1>         0.088322 
      7 C           3.404673    4.675852    0.315700 C.2       1 <1>         0.093865 
      8 C           1.271807    0.407295    1.484054 C.ar      1 <1>         0.084401 
      9 C           4.166980    4.687971    1.419786 C.2       1 <1>         0.016918 
     10 O           4.814702    3.677152    3.423378 O.2       1 <1>        -0.287017 
     11 C           2.018332    0.321294    2.672870 C.ar      1 <1>        -0.000933 
     12 O           3.734108    1.300368    4.219478 O.3       1 <1>        -0.358955 
     13 C           3.463704    5.785738   -0.714730 C.ar      1 <1>         0.005751 
     14 O           0.364836   -0.616909    1.189914 O.3       1 <1>        -0.312375 
     15 C           3.121154    5.452552   -2.119877 C.ar      1 <1>        -0.049682 
     16 C           3.822330    7.128239   -0.395086 C.ar      1 <1>        -0.049682 
     17 C          -0.559873   -0.497677    0.097462 C.3       1 <1>         0.194011 
     18 C           3.160055    6.438136   -3.123701 C.ar      1 <1>        -0.031304 
     19 C           3.869839    8.164557   -1.454547 C.ar      1 <1>        -0.031304 
     20 C          -1.477219   -1.747399    0.084859 C.3       1 <1>         0.141013 
     21 O          -1.304957    0.711988    0.327128 O.3       1 <1>        -0.340157 
     22 C           3.544483    7.830042   -2.797957 C.ar      1 <1>         0.072619 
     23 O          -0.608111   -2.860909   -0.236052 O.3       1 <1>        -0.337748 
     24 C          -2.630322   -1.542847   -0.937169 C.3       1 <1>         0.114441 
     25 C          -2.286823    0.971168   -0.691040 C.3       1 <1>         0.113017 
     26 O           3.579217    8.784610   -3.817732 O.3       1 <1>        -0.359832 
     27 C          -1.239547   -4.154439   -0.197185 C.3       1 <1>         0.188431 
     28 C          -3.328850   -0.175785   -0.717910 C.3       1 <1>         0.111906 
     29 O          -3.629839   -2.573747   -0.803343 O.3       1 <1>        -0.386391 
     30 C          -2.964030    2.322396   -0.349530 C.3       1 <1>         0.073015 
     31 C          -0.148810   -5.232599   -0.406645 C.3       1 <1>         0.134123 
     32 O          -1.837004   -4.297593    1.107257 O.3       1 <1>        -0.343067 
     33 O          -4.275440    0.003600   -1.789617 O.3       1 <1>        -0.386488 
     34 O          -4.035334    2.574849   -1.280576 O.3       1 <1>        -0.392366 
     35 C          -0.793927   -6.638651   -0.276911 C.3       1 <1>         0.113972 
     36 O           0.469322   -5.058846   -1.700744 O.3       1 <1>        -0.384104 
     37 C          -2.478242   -5.567538    1.327969 C.3       1 <1>         0.087307 
     38 C          -1.489881   -6.750687    1.104734 C.3       1 <1>         0.109478 
     39 O          -1.704672   -6.863097   -1.371662 O.3       1 <1>        -0.386402 
     40 C          -3.818760   -5.692149    0.551277 C.3       1 <1>        -0.036060 
     41 O          -0.440494   -6.748882    2.095304 O.3       1 <1>        -0.386579 
     42 H           0.917092    1.678079   -0.342378 H         1 <1>         0.066957 
     43 H           4.876121    5.487851    1.620500 H         1 <1>         0.068219 
     44 H           1.870623   -0.534344    3.322090 H         1 <1>         0.066933 
     45 H           3.553694    0.524422    4.737496 H         1 <1>         0.217342 
     46 H           2.838098    4.437539   -2.379594 H         1 <1>         0.062503 
     47 H           4.058198    7.418325    0.621805 H         1 <1>         0.062503 
     48 H          -0.000731   -0.471333   -0.853031 H         1 <1>         0.094170 
     49 H           2.908065    6.184466   -4.147796 H         1 <1>         0.064339 
     50 H           4.154467    9.178017   -1.192909 H         1 <1>         0.064339 
     51 H          -1.903594   -1.843030    1.096220 H         1 <1>         0.067490 
     52 H          -2.191749   -1.567045   -1.949790 H         1 <1>         0.064768 
     53 H          -1.820098    1.062185   -1.686629 H         1 <1>         0.064668 
     54 H           3.824897    9.655949   -3.528566 H         1 <1>         0.217313 
     55 H          -1.949135   -4.242090   -1.031626 H         1 <1>         0.093753 
     56 H          -3.851054   -0.210994    0.253852 H         1 <1>         0.064673 
     57 H          -4.345889   -2.459648   -1.422607 H         1 <1>         0.210005 
     58 H          -3.356257    2.276323    0.680524 H         1 <1>         0.058370 
     59 H          -2.203427    3.120703   -0.397423 H         1 <1>         0.058370 
     60 H           0.602759   -5.085086    0.388453 H         1 <1>         0.067095 
     61 H          -4.713814    0.850806   -1.743148 H         1 <1>         0.210004 
     62 H          -4.471734    3.408467   -1.123867 H         1 <1>         0.209508 
     63 H           0.013271   -7.390828   -0.329183 H         1 <1>         0.064757 
     64 H           1.163332   -5.687298   -1.870428 H         1 <1>         0.210110 
     65 H          -2.754327   -5.561603    2.395749 H         1 <1>         0.062075 
     66 H          -2.030109   -7.711421    1.163935 H         1 <1>         0.064584 
     67 H          -2.090599   -7.733732   -1.373865 H         1 <1>         0.210005 
     68 H          -4.346973   -6.609431    0.854459 H         1 <1>         0.025536 
     69 H          -4.456342   -4.827796    0.794667 H         1 <1>         0.025536 
     70 H          -3.692268   -5.718722   -0.537715 H         1 <1>         0.025536 
     71 H          -0.754667   -6.838878    2.989819 H         1 <1>         0.210002 
@<TRIPOS>BOND
     1    1    2 1    
     2    1    3 1    
     3    1    4 2    
     4    2    5 1    
     5    2    6 2    
     6    3    7 1    
     7    4    8 1    
     8    4   42 1    
     9    5    9 1    
    10    5   10 2    
    11    6   11 1    
    12    6   12 1    
    13    7    9 2    
    14    7   13 1    
    15    8   11 2    
    16    8   14 1    
    17    9   43 1    
    18   11   44 1    
    19   12   45 1    
    20   13   15 1    
    21   13   16 2    
    22   14   17 1    
    23   15   18 2    
    24   15   46 1    
    25   16   19 1    
    26   16   47 1    
    27   17   20 1    
    28   17   21 1    
    29   17   48 1    
    30   18   22 1    
    31   18   49 1    
    32   19   22 2    
    33   19   50 1    
    34   20   23 1    
    35   20   24 1    
    36   20   51 1    
    37   21   25 1    
    38   22   26 1    
    39   23   27 1    
    40   24   28 1    
    41   24   29 1    
    42   24   52 1    
    43   25   28 1    
    44   25   30 1    
    45   25   53 1    
    46   26   54 1    
    47   27   31 1    
    48   27   32 1    
    49   27   55 1    
    50   28   33 1    
    51   28   56 1    
    52   29   57 1    
    53   30   34 1    
    54   30   58 1    
    55   30   59 1    
    56   31   35 1    
    57   31   36 1    
    58   31   60 1    
    59   32   37 1    
    60   33   61 1    
    61   34   62 1    
    62   35   38 1    
    63   35   39 1    
    64   35   63 1    
    65   36   64 1    
    66   37   38 1    
    67   37   40 1    
    68   37   65 1    
    69   38   41 1    
    70   38   66 1    
    71   39   67 1    
    72   40   68 1    
    73   40   69 1    
    74   40   70 1    
    75   41   71 1    
@<TRIPOS>SUBSTRUCTURE
     1 ****        1 TEMP              0 ****  ****    0 ROOT 
@<TRIPOS>NORMAL
@<TRIPOS>FF_PBC
FORCE_FIELD_SETUP_FEATURE Force Field Setup information
v1.0  0 0.000000 0.000000 0.000000 0.000000 0.000000 0.000000 NONE 0 0 0 0 1 0 0 0 0 0 0 0 0
