@<TRIPOS>MOLECULE
MOL004907
   32    35     1     1     0
SMALL
GASTEIGER


@<TRIPOS>ATOM
      1 O          -4.607179    0.281351   -1.592971 O.3       1 <1>        -0.312451 
      2 O          -5.607197    0.306177    0.598097 O.3       1 <1>        -0.314962 
      3 O           1.925171   -1.872507   -0.068752 O.3       1 <1>        -0.315352 
      4 O          -1.699232   -0.167383   -2.084189 O.3       1 <1>        -0.356718 
      5 O           0.457593    1.851878    0.305539 O.2       1 <1>        -0.286477 
      6 O           6.590252   -0.371057   -0.312650 O.3       1 <1>        -0.359749 
      7 C          -1.424621   -0.276195    0.351442 C.ar      1 <1>         0.020135 
      8 C           0.070896   -0.459020    0.206082 C.2       1 <1>         0.055102 
      9 C          -3.686739    0.075709   -0.581879 C.ar      1 <1>         0.139169 
     10 C          -2.234591   -0.126542   -0.795467 C.ar      1 <1>         0.113096 
     11 C          -4.239633    0.096359    0.634242 C.ar      1 <1>         0.111607 
     12 C           2.413925    0.507010    0.067252 C.ar      1 <1>         0.052905 
     13 C           0.931719    0.729807    0.201523 C.2       1 <1>         0.198174 
     14 C          -2.042449   -0.249389    1.705817 C.ar      1 <1>        -0.048783 
     15 C          -3.434310   -0.073695    1.867603 C.ar      1 <1>        -0.028292 
     16 C           2.843952   -0.813490   -0.066676 C.ar      1 <1>         0.095569 
     17 C           0.602010   -1.681338    0.073105 C.2       1 <1>         0.058336 
     18 C          -5.844414    0.131379   -0.836829 C.3       1 <1>         0.160143 
     19 C           3.397851    1.618448    0.075962 C.ar      1 <1>        -0.045981 
     20 C           4.290883   -1.099533   -0.206441 C.ar      1 <1>        -0.000723 
     21 C           4.767057    1.341672   -0.051171 C.ar      1 <1>        -0.031105 
     22 C           5.231570   -0.062758   -0.193875 C.ar      1 <1>         0.075081 
     23 H          -1.403601   -0.368916    2.575993 H         1 <1>         0.062525 
     24 H          -3.896820   -0.058585    2.851618 H         1 <1>         0.064433 
     25 H          -0.039040   -2.563986    0.075507 H         1 <1>         0.089750 
     26 H          -6.203244   -0.902732   -1.006637 H         1 <1>         0.087952 
     27 H          -6.611322    0.835195   -1.213000 H         1 <1>         0.087952 
     28 H           3.055998    2.642140    0.180772 H         1 <1>         0.062621 
     29 H           4.626623   -2.124433   -0.316835 H         1 <1>         0.066945 
     30 H           5.480627    2.157469   -0.044742 H         1 <1>         0.064341 
     31 H          -0.885132    0.320232   -2.158185 H         1 <1>         0.217444 
     32 H           7.172796    0.378134   -0.240154 H         1 <1>         0.217315 
@<TRIPOS>BOND
     1    9    1 1    
     2    1   18 1    
     3   11    2 1    
     4    2   18 1    
     5   16    3 1    
     6    3   17 1    
     7   10    4 1    
     8    4   31 1    
     9   13    5 2    
    10   22    6 1    
    11    6   32 1    
    12    8    7 1    
    13    7   10 2    
    14    7   14 1    
    15   13    8 1    
    16   17    8 2    
    17   10    9 1    
    18    9   11 2    
    19   15   11 1    
    20   12   13 1    
    21   16   12 2    
    22   12   19 1    
    23   14   15 2    
    24   14   23 1    
    25   15   24 1    
    26   20   16 1    
    27   17   25 1    
    28   18   26 1    
    29   18   27 1    
    30   19   21 2    
    31   19   28 1    
    32   20   22 2    
    33   20   29 1    
    34   21   22 1    
    35   21   30 1    
@<TRIPOS>SUBSTRUCTURE
     1 ****        2 TEMP              0 ****  ****    0 ROOT 
@<TRIPOS>NORMAL
@<TRIPOS>FF_PBC
FORCE_FIELD_SETUP_FEATURE Force Field Setup information
v1.0  0 0.000000 0.000000 0.000000 0.000000 0.000000 0.000000 NONE 0 0 0 0 1 0 0 0 0 0 0 0 0
