@<TRIPOS>MOLECULE
MOL001794
   12    11     1     1     0
SMALL
GASTEIGER


@<TRIPOS>ATOM
      1 C           1.364212   -0.667224   -0.010885 C.2       1 <1>         0.284191 
      2 C           0.013040   -1.258598   -0.005064 C.2       1 <1>         0.015384 
      3 C          -1.158892   -0.607535   -0.011829 C.2       1 <1>         0.015384 
      4 C          -1.371503    0.849664   -0.095242 C.2       1 <1>         0.284191 
      5 O           2.299083   -1.336377   -0.423352 O.2       1 <1>        -0.260080 
      6 O           1.562592    0.567679    0.451736 O.3       1 <1>        -0.327927 
      7 O          -2.418112    1.318016    0.325659 O.2       1 <1>        -0.260080 
      8 O          -0.446057    1.636424   -0.645585 O.3       1 <1>        -0.327927 
      9 H          -0.007177   -2.349284    0.012895 H         1 <1>         0.067896 
     10 H          -2.073803   -1.199358    0.043528 H         1 <1>         0.067896 
     11 H           2.472630    0.836421    0.390984 H         1 <1>         0.220537 
     12 H          -0.697005    2.553534   -0.636446 H         1 <1>         0.220537 
@<TRIPOS>BOND
     1    1    2 1    
     2    1    5 2    
     3    1    6 1    
     4    2    3 2    
     5    2    9 1    
     6    3    4 1    
     7    3   10 1    
     8    4    7 2    
     9    4    8 1    
    10    6   11 1    
    11    8   12 1    
@<TRIPOS>SUBSTRUCTURE
     1 ****        1 TEMP              0 ****  ****    0 ROOT 
@<TRIPOS>NORMAL
@<TRIPOS>FF_PBC
FORCE_FIELD_SETUP_FEATURE Force Field Setup information
v1.0  0 0.000000 0.000000 0.000000 0.000000 0.000000 0.000000 NONE 0 0 0 0 1 0 0 0 0 0 0 0 0
