@<TRIPOS>MOLECULE
MOL006949
   23    22     1     1     0
SMALL
GASTEIGER


@<TRIPOS>ATOM
      1 O          -3.341296   -0.184121    1.008889 O.2       1 <1>        -0.298200 
      2 C          -2.254239   -0.410382    0.500398 C.2       1 <1>         0.151210 
      3 C          -1.522882    0.668580   -0.257046 C.3       1 <1>         0.138143 
      4 O          -1.076755    0.169915   -1.530126 O.3       1 <1>        -0.381901 
      5 C          -0.359122    1.275735    0.573530 C.3       1 <1>         0.115790 
      6 O           0.153766    2.391946   -0.185447 O.3       1 <1>        -0.386145 
      7 C           0.761955    0.278433    1.011350 C.3       1 <1>         0.109359 
      8 O           0.203351   -0.680695    1.931868 O.3       1 <1>        -0.386579 
      9 C           1.583838   -0.394234   -0.139751 C.3       1 <1>         0.080789 
     10 O           1.627938    0.475383   -1.287082 O.3       1 <1>        -0.389422 
     11 C           1.094035   -1.817421   -0.537251 C.3       1 <1>        -0.036423 
     12 H          -1.826862   -1.404878    0.607996 H         1 <1>         0.105461 
     13 H          -2.244330    1.480720   -0.458788 H         1 <1>         0.069684 
     14 H          -0.533079    0.809330   -1.984514 H         1 <1>         0.210454 
     15 H          -0.814193    1.674193    1.499349 H         1 <1>         0.065020 
     16 H           0.844492    2.877184    0.254239 H         1 <1>         0.210018 
     17 H           1.464753    0.913859    1.582442 H         1 <1>         0.064584 
     18 H           0.859345   -1.217012    2.367649 H         1 <1>         0.210002 
     19 H           2.618108   -0.532123    0.229369 H         1 <1>         0.061700 
     20 H           2.166293    0.143678   -1.999151 H         1 <1>         0.209877 
     21 H           1.736770   -2.221502   -1.334760 H         1 <1>         0.025527 
     22 H           0.064083   -1.816979   -0.909168 H         1 <1>         0.025527 
     23 H           1.149465   -2.509929    0.315747 H         1 <1>         0.025527 
@<TRIPOS>BOND
     1    1    2 2    
     2    2    3 1    
     3    2   12 1    
     4    3    4 1    
     5    3    5 1    
     6    3   13 1    
     7    4   14 1    
     8    5    6 1    
     9    5    7 1    
    10    5   15 1    
    11    6   16 1    
    12    7    8 1    
    13    7    9 1    
    14    7   17 1    
    15    8   18 1    
    16    9   10 1    
    17    9   11 1    
    18    9   19 1    
    19   10   20 1    
    20   11   21 1    
    21   11   22 1    
    22   11   23 1    
@<TRIPOS>SUBSTRUCTURE
     1 ****        1 TEMP              0 ****  ****    0 ROOT 
@<TRIPOS>NORMAL
@<TRIPOS>FF_PBC
FORCE_FIELD_SETUP_FEATURE Force Field Setup information
v1.0  0 0.000000 0.000000 0.000000 0.000000 0.000000 0.000000 NONE 0 0 0 0 1 0 0 0 0 0 0 0 0
