@<TRIPOS>MOLECULE
MOL004869
   58    59     1     1     0
SMALL
GASTEIGER


@<TRIPOS>ATOM
      1 C          12.293496   -2.759553   -1.088307 C.ar      1 <1>         0.102201 
      2 C          11.190797   -3.732233   -1.260755 C.ar      1 <1>         0.102443 
      3 C          11.378194   -5.183907   -0.818826 C.ar      1 <1>        -0.026216 
      4 C          12.659920   -5.651731   -0.221254 C.ar      1 <1>        -0.044460 
      5 C          13.792156   -4.636537   -0.060870 C.ar      1 <1>        -0.055972 
      6 C          13.613146   -3.226172   -0.480000 C.ar      1 <1>        -0.029149 
      7 O          12.115206   -1.429914   -1.480457 O.3       1 <1>        -0.357275 
      8 O           9.981687   -3.315356   -1.825348 O.3       1 <1>        -0.357268 
      9 C          12.914666   -7.101530    0.245314 C.3       1 <1>        -0.023591 
     10 C          11.644610   -7.996554    0.188078 C.3       1 <1>        -0.022997 
     11 C          11.513608   -9.502014    0.564815 C.ar      1 <1>        -0.035240 
     12 C          12.472514  -10.287777    1.409891 C.ar      1 <1>        -0.010330 
     13 C          12.161682  -11.762496    1.717497 C.ar      1 <1>         0.078748 
     14 C          10.952742  -12.408965    1.161068 C.ar      1 <1>        -0.001598 
     15 C           9.989275  -11.637318    0.281577 C.ar      1 <1>         0.078748 
     16 C          10.239827  -10.199785   -0.002999 C.ar      1 <1>        -0.010330 
     17 O           8.879880  -12.285639   -0.255631 O.3       1 <1>        -0.359460 
     18 O          13.018070  -12.510732    2.523967 O.3       1 <1>        -0.359460 
     19 C           9.250527   -9.370769   -0.862496 C.3       1 <1>        -0.006541 
     20 C           7.812425   -9.720825   -1.188971 C.2       1 <1>        -0.080890 
     21 C           6.950870   -8.816559   -1.691280 C.2       1 <1>        -0.079307 
     22 C           7.329593   -7.375355   -1.981763 C.3       1 <1>        -0.044040 
     23 C           5.517269   -9.178724   -2.003865 C.3       1 <1>        -0.044040 
     24 C          13.744079   -9.609708    1.959981 C.3       1 <1>        -0.006541 
     25 C          14.952814  -10.297652    2.567315 C.2       1 <1>        -0.080890 
     26 C          16.124994   -9.666892    2.769458 C.2       1 <1>        -0.079307 
     27 C          16.335144   -8.205443    2.437103 C.3       1 <1>        -0.044040 
     28 C          17.333649  -10.376499    3.342380 C.3       1 <1>        -0.044040 
     29 H          10.539737   -5.853420   -0.959268 H         1 <1>         0.064676 
     30 H          14.740677   -4.947261    0.366394 H         1 <1>         0.062110 
     31 H          14.423880   -2.520176   -0.351369 H         1 <1>         0.064412 
     32 H          12.873606   -0.878414   -1.328750 H         1 <1>         0.217422 
     33 H           9.381454   -4.030576   -1.999431 H         1 <1>         0.217422 
     34 H          13.285438   -6.991412    1.273008 H         1 <1>         0.031633 
     35 H          13.704927   -7.497420   -0.414486 H         1 <1>         0.031633 
     36 H          10.884338   -7.474379    0.788685 H         1 <1>         0.031650 
     37 H          11.411847   -7.962822   -0.882716 H         1 <1>         0.031650 
     38 H          10.747743  -13.449604    1.377436 H         1 <1>         0.066919 
     39 H           8.680779  -13.121084    0.152507 H         1 <1>         0.217326 
     40 H          12.849157  -13.445209    2.512325 H         1 <1>         0.217326 
     41 H           9.137203   -8.408964   -0.348064 H         1 <1>         0.035648 
     42 H           9.741403   -9.236025   -1.837605 H         1 <1>         0.035648 
     43 H           7.428168  -10.722332   -1.031656 H         1 <1>         0.057472 
     44 H           6.705783   -6.966235   -2.791592 H         1 <1>         0.027427 
     45 H           8.375908   -7.253804   -2.297384 H         1 <1>         0.027427 
     46 H           7.158168   -6.768983   -1.078929 H         1 <1>         0.027427 
     47 H           5.252758  -10.208357   -1.722570 H         1 <1>         0.027427 
     48 H           5.347851   -9.068025   -3.084934 H         1 <1>         0.027427 
     49 H           4.846571   -8.494282   -1.464978 H         1 <1>         0.027427 
     50 H          13.394063   -8.857720    2.679998 H         1 <1>         0.035648 
     51 H          14.192111   -9.148584    1.076063 H         1 <1>         0.035648 
     52 H          14.915343  -11.339234    2.861023 H         1 <1>         0.057472 
     53 H          17.210168   -7.805959    2.974384 H         1 <1>         0.027427 
     54 H          15.468040   -7.593042    2.720855 H         1 <1>         0.027427 
     55 H          16.514594   -8.100649    1.356955 H         1 <1>         0.027427 
     56 H          17.172583  -11.452619    3.504072 H         1 <1>         0.027427 
     57 H          17.601149   -9.922788    4.307958 H         1 <1>         0.027427 
     58 H          18.181350  -10.259491    2.651363 H         1 <1>         0.027427 
@<TRIPOS>BOND
     1    1    2 1    
     2    1    6 2    
     3    1    7 1    
     4    2    3 2    
     5    2    8 1    
     6    3    4 1    
     7    3   29 1    
     8    4    5 2    
     9    4    9 1    
    10    5    6 1    
    11    5   30 1    
    12    6   31 1    
    13    7   32 1    
    14    8   33 1    
    15    9   10 1    
    16    9   34 1    
    17    9   35 1    
    18   10   11 1    
    19   10   36 1    
    20   10   37 1    
    21   11   12 1    
    22   11   16 2    
    23   12   13 2    
    24   12   24 1    
    25   13   14 1    
    26   13   18 1    
    27   14   15 2    
    28   14   38 1    
    29   15   16 1    
    30   15   17 1    
    31   16   19 1    
    32   17   39 1    
    33   18   40 1    
    34   19   20 1    
    35   19   41 1    
    36   19   42 1    
    37   20   21 2    
    38   20   43 1    
    39   21   22 1    
    40   21   23 1    
    41   22   44 1    
    42   22   45 1    
    43   22   46 1    
    44   23   47 1    
    45   23   48 1    
    46   23   49 1    
    47   24   25 1    
    48   24   50 1    
    49   24   51 1    
    50   25   26 2    
    51   25   52 1    
    52   26   27 1    
    53   26   28 1    
    54   27   53 1    
    55   27   54 1    
    56   27   55 1    
    57   28   56 1    
    58   28   57 1    
    59   28   58 1    
@<TRIPOS>SUBSTRUCTURE
     1 ****        1 TEMP              0 ****  ****    0 ROOT 
@<TRIPOS>NORMAL
@<TRIPOS>FF_PBC
FORCE_FIELD_SETUP_FEATURE Force Field Setup information
v1.0  0 0.000000 0.000000 0.000000 0.000000 0.000000 0.000000 NONE 0 0 0 0 1 0 0 0 0 0 0 0 0
