@<TRIPOS>MOLECULE
MOL012409
   42    43     1     1     0
SMALL
GASTEIGER


@<TRIPOS>ATOM
      1 C           2.926283    0.918260   -0.302216 C.3       1 <1>        -0.025553 
      2 C           3.976521    0.287553    0.655732 C.3       1 <1>        -0.008925 
      3 C           4.156562   -1.206179    0.269333 C.3       1 <1>        -0.046550 
      4 C           2.793842   -1.938066    0.381626 C.3       1 <1>        -0.043562 
      5 C           1.639212   -1.300622   -0.455962 C.3       1 <1>        -0.010792 
      6 C           0.318026   -1.984407    0.020364 C.3       1 <1>        -0.043625 
      7 C          -0.926043   -1.291256   -0.570732 C.3       1 <1>        -0.048582 
      8 C          -0.935819    0.173843   -0.077495 C.3       1 <1>        -0.031707 
      9 C           0.413216    0.866071   -0.089916 C.2       1 <1>        -0.072842 
     10 C           1.578972    0.209440   -0.260766 C.2       1 <1>        -0.064300 
     11 C           5.304156    1.121259    0.739192 C.3       1 <1>         0.063617 
     12 O           4.920962    2.418955    1.237659 O.3       1 <1>        -0.388835 
     13 C           0.341587    2.366393    0.115945 C.3       1 <1>        -0.043516 
     14 C           1.863105   -1.571741   -1.977104 C.3       1 <1>        -0.055834 
     15 C           6.011368    1.312424   -0.634650 C.3       1 <1>        -0.036069 
     16 C           6.302503    0.495605    1.757299 C.3       1 <1>        -0.036069 
     17 H           2.863921    1.985814   -0.057627 H         1 <1>         0.031381 
     18 H           3.283919    0.854571   -1.338685 H         1 <1>         0.031381 
     19 H           3.538585    0.322761    1.668539 H         1 <1>         0.033130 
     20 H           4.853551   -1.710866    0.955783 H         1 <1>         0.026918 
     21 H           4.567982   -1.305132   -0.743934 H         1 <1>         0.026918 
     22 H           2.526839   -1.924463    1.451098 H         1 <1>         0.027367 
     23 H           2.919351   -2.992909    0.087502 H         1 <1>         0.027367 
     24 H           0.314200   -3.053310   -0.248766 H         1 <1>         0.027366 
     25 H           0.220781   -1.916469    1.116394 H         1 <1>         0.027366 
     26 H          -1.844943   -1.802581   -0.233115 H         1 <1>         0.026856 
     27 H          -0.913298   -1.337498   -1.669288 H         1 <1>         0.026856 
     28 H          -1.660992    0.724424   -0.699306 H         1 <1>         0.030998 
     29 H          -1.288388    0.202801    0.965841 H         1 <1>         0.030998 
     30 H           5.643276    3.031517    1.328214 H         1 <1>         0.210147 
     31 H           0.799029    2.898085   -0.731756 H         1 <1>         0.027444 
     32 H           0.857551    2.637252    1.049198 H         1 <1>         0.027444 
     33 H          -0.694504    2.727198    0.204711 H         1 <1>         0.027444 
     34 H           1.716246   -2.637117   -2.208578 H         1 <1>         0.023811 
     35 H           2.873994   -1.304607   -2.308846 H         1 <1>         0.023811 
     36 H           1.169226   -0.983063   -2.593938 H         1 <1>         0.023811 
     37 H           6.231824    0.347772   -1.111899 H         1 <1>         0.025721 
     38 H           5.394065    1.915182   -1.315073 H         1 <1>         0.025721 
     39 H           6.965202    1.845479   -0.499347 H         1 <1>         0.025721 
     40 H           6.752965   -0.425677    1.363297 H         1 <1>         0.025721 
     41 H           5.790311    0.267351    2.703266 H         1 <1>         0.025721 
     42 H           7.123594    1.194326    1.976842 H         1 <1>         0.025721 
@<TRIPOS>BOND
     1    1    2 1    
     2    1   10 1    
     3    1   17 1    
     4    1   18 1    
     5    2    3 1    
     6    2   11 1    
     7    2   19 1    
     8    3    4 1    
     9    3   20 1    
    10    3   21 1    
    11    4    5 1    
    12    4   22 1    
    13    4   23 1    
    14    5    6 1    
    15    5   10 1    
    16    5   14 1    
    17    6    7 1    
    18    6   24 1    
    19    6   25 1    
    20    7    8 1    
    21    7   26 1    
    22    7   27 1    
    23    8    9 1    
    24    8   28 1    
    25    8   29 1    
    26    9   10 2    
    27    9   13 1    
    28   11   12 1    
    29   11   15 1    
    30   11   16 1    
    31   12   30 1    
    32   13   31 1    
    33   13   32 1    
    34   13   33 1    
    35   14   34 1    
    36   14   35 1    
    37   14   36 1    
    38   15   37 1    
    39   15   38 1    
    40   15   39 1    
    41   16   40 1    
    42   16   41 1    
    43   16   42 1    
@<TRIPOS>SUBSTRUCTURE
     1 ****        1 TEMP              0 ****  ****    0 ROOT 
@<TRIPOS>NORMAL
@<TRIPOS>FF_PBC
FORCE_FIELD_SETUP_FEATURE Force Field Setup information
v1.0  0 0.000000 0.000000 0.000000 0.000000 0.000000 0.000000 NONE 0 0 0 0 1 0 0 0 0 0 0 0 0
