@<TRIPOS>MOLECULE
MOL000486
   33    35     1     1     0
SMALL
GASTEIGER


@<TRIPOS>ATOM
      1 C           0.966039    1.245741    0.000228 C.2       1 <1>         0.058255 
      2 C           1.125072   -0.094707   -0.000042 C.2       1 <1>         0.052653 
      3 C          -0.110570   -0.929533   -0.000377 C.2       1 <1>         0.200572 
      4 C          -1.463829   -0.264495   -0.000090 C.ar      1 <1>         0.082516 
      5 C          -1.440899    1.205342    0.000096 C.ar      1 <1>         0.098066 
      6 O          -0.222886    1.870444    0.000192 O.3       1 <1>        -0.315268 
      7 C          -2.633892    1.937855    0.000193 C.ar      1 <1>        -0.000309 
      8 C          -3.940980    1.230598    0.000185 C.ar      1 <1>         0.080750 
      9 C          -3.960446   -0.173261    0.000115 C.ar      1 <1>        -0.001055 
     10 C          -2.698035   -0.955816   -0.000021 C.ar      1 <1>         0.088340 
     11 O          -0.103461   -2.146730   -0.000953 O.2       1 <1>        -0.286389 
     12 O          -5.160803    1.918430    0.000251 O.3       1 <1>        -0.347746 
     13 C          -5.208103    3.354154    0.000115 C.3       1 <1>         0.043029 
     14 C           2.530746   -0.703927   -0.000026 C.ar      1 <1>        -0.012137 
     15 C           3.768607    0.135695   -0.000335 C.ar      1 <1>        -0.051421 
     16 C           5.061686   -0.418075   -0.000309 C.ar      1 <1>        -0.031363 
     17 C           5.266312   -1.879421   -0.000071 C.ar      1 <1>         0.072617 
     18 C           4.142183   -2.708244    0.000206 C.ar      1 <1>        -0.031363 
     19 C           2.777683   -2.127339    0.000299 C.ar      1 <1>        -0.051421 
     20 O           6.565575   -2.394280   -0.000139 O.3       1 <1>        -0.359832 
     21 O          -2.721297   -2.352092   -0.000100 O.3       1 <1>        -0.358955 
     22 H           1.744338    1.998093    0.000507 H         1 <1>         0.089749 
     23 H          -2.571775    3.018392    0.000290 H         1 <1>         0.066955 
     24 H          -4.917993   -0.681598    0.000146 H         1 <1>         0.066931 
     25 H          -6.265960    3.655662    0.000119 H         1 <1>         0.052870 
     26 H          -4.730956    3.764911   -0.902860 H         1 <1>         0.052870 
     27 H          -4.730906    3.765085    0.902983 H         1 <1>         0.052870 
     28 H           3.739689    1.214034   -0.000595 H         1 <1>         0.062443 
     29 H           5.933645    0.228343   -0.000481 H         1 <1>         0.064338 
     30 H           4.258055   -3.787215    0.000352 H         1 <1>         0.064338 
     31 H           1.986247   -2.856575    0.000642 H         1 <1>         0.062443 
     32 H           6.611906   -3.343686   -0.000150 H         1 <1>         0.217313 
     33 H          -3.594893   -2.725884    0.000031 H         1 <1>         0.217342 
@<TRIPOS>BOND
     1    1    2 2    
     2    1    6 1    
     3    1   22 1    
     4    2    3 1    
     5    2   14 1    
     6    3    4 1    
     7    3   11 2    
     8    4    5 1    
     9    4   10 2    
    10    5    6 1    
    11    5    7 2    
    12    7    8 1    
    13    7   23 1    
    14    8    9 2    
    15    8   12 1    
    16    9   10 1    
    17    9   24 1    
    18   10   21 1    
    19   12   13 1    
    20   13   25 1    
    21   13   26 1    
    22   13   27 1    
    23   14   15 1    
    24   14   19 2    
    25   15   16 2    
    26   15   28 1    
    27   16   17 1    
    28   16   29 1    
    29   17   18 2    
    30   17   20 1    
    31   18   19 1    
    32   18   30 1    
    33   19   31 1    
    34   20   32 1    
    35   21   33 1    
@<TRIPOS>SUBSTRUCTURE
     1 ****        1 TEMP              0 ****  ****    0 ROOT 
@<TRIPOS>NORMAL
@<TRIPOS>FF_PBC
FORCE_FIELD_SETUP_FEATURE Force Field Setup information
v1.0  0 0.000000 0.000000 0.000000 0.000000 0.000000 0.000000 NONE 0 0 0 0 1 0 0 0 0 0 0 0 0
