@<TRIPOS>MOLECULE
MOL000120
   29    28     1     1     0
SMALL
GASTEIGER


@<TRIPOS>ATOM
      1 C          -1.157267   -0.308161   -0.000075 C.3       1 <1>        -0.049606 
      2 C           0.203747    0.440521    0.000073 C.3       1 <1>        -0.052779 
      3 C          -2.351134    0.684265    0.000242 C.3       1 <1>        -0.034373 
      4 C           1.395739   -0.555411   -0.000163 C.3       1 <1>        -0.053056 
      5 C          -3.682145   -0.029677    0.000130 C.2       1 <1>        -0.080990 
      6 C           2.758513    0.189974    0.000035 C.3       1 <1>        -0.053306 
      7 C          -4.839250    0.644941   -0.000040 C.2       1 <1>        -0.026368 
      8 C           3.947968   -0.808709   -0.000170 C.3       1 <1>        -0.055911 
      9 C          -6.160549   -0.009352   -0.000147 C.2       1 <1>         0.142804 
     10 C           5.309366   -0.065815    0.000066 C.3       1 <1>        -0.065276 
     11 O          -7.174340    0.669578   -0.000257 O.2       1 <1>        -0.296330 
     12 H          -1.221507   -0.950280   -0.894253 H         1 <1>         0.026822 
     13 H          -1.221438   -0.950749    0.893801 H         1 <1>         0.026822 
     14 H           0.266152    1.083406    0.893590 H         1 <1>         0.026538 
     15 H           0.266131    1.083809   -0.893113 H         1 <1>         0.026538 
     16 H          -2.294546    1.325835    0.894499 H         1 <1>         0.030742 
     17 H          -2.294606    1.326326   -0.893662 H         1 <1>         0.030742 
     18 H           1.332875   -1.198224   -0.893642 H         1 <1>         0.026528 
     19 H           1.332861   -1.198666    0.893042 H         1 <1>         0.026528 
     20 H          -3.701521   -1.120428    0.000194 H         1 <1>         0.057298 
     21 H           2.823248    0.832603    0.893562 H         1 <1>         0.026520 
     22 H           2.823281    0.833014   -0.893150 H         1 <1>         0.026520 
     23 H          -4.823678    1.735320   -0.000091 H         1 <1>         0.064624 
     24 H           3.889435   -1.452400   -0.893781 H         1 <1>         0.026265 
     25 H           3.889378   -1.452847    0.893153 H         1 <1>         0.026265 
     26 H          -6.255736   -1.094852   -0.000130 H         1 <1>         0.107505 
     27 H           6.137472   -0.792277   -0.000079 H         1 <1>         0.022978 
     28 H           5.400748    0.568908    0.895289 H         1 <1>         0.022978 
     29 H           5.400808    0.569350   -0.894820 H         1 <1>         0.022978 
@<TRIPOS>BOND
     1    1    2 1    
     2    1    3 1    
     3    1   12 1    
     4    1   13 1    
     5    2    4 1    
     6    2   14 1    
     7    2   15 1    
     8    3    5 1    
     9    3   16 1    
    10    3   17 1    
    11    4    6 1    
    12    4   18 1    
    13    4   19 1    
    14    5    7 2    
    15    5   20 1    
    16    6    8 1    
    17    6   21 1    
    18    6   22 1    
    19    7    9 1    
    20    7   23 1    
    21    8   10 1    
    22    8   24 1    
    23    8   25 1    
    24    9   11 2    
    25    9   26 1    
    26   10   27 1    
    27   10   28 1    
    28   10   29 1    
@<TRIPOS>SUBSTRUCTURE
     1 ****        1 TEMP              0 ****  ****    0 ROOT 
@<TRIPOS>NORMAL
@<TRIPOS>FF_PBC
FORCE_FIELD_SETUP_FEATURE Force Field Setup information
v1.0  0 0.000000 0.000000 0.000000 0.000000 0.000000 0.000000 NONE 0 0 0 0 1 0 0 0 0 0 0 0 0
