@<TRIPOS>MOLECULE
MOL004078
   42    44     1     1     0
SMALL
GASTEIGER


@<TRIPOS>ATOM
      1 O          -0.538728   -0.291747   -2.784377 O.3       1 <1>        -0.387179 
      2 O          -3.109526   -1.964406    0.157473 O.3       1 <1>        -0.391483 
      3 O           3.752294   -0.277602    0.853617 O.3       1 <1>        -0.387473 
      4 C           0.089002    0.050287    0.669451 C.3       1 <1>         0.007481 
      5 C          -0.609652    1.441922    0.519873 C.3       1 <1>        -0.019509 
      6 C          -1.288325    1.219662   -0.874320 C.3       1 <1>        -0.002804 
      7 C          -0.924595   -1.136294    0.846112 C.3       1 <1>        -0.007777 
      8 C           0.696438    0.029755   -0.691845 C.2       1 <1>        -0.032677 
      9 C          -0.144952    0.648480   -1.772037 C.3       1 <1>         0.080512 
     10 C           1.374521   -0.073152    1.544649 C.3       1 <1>        -0.012710 
     11 C          -2.461463    0.203461   -0.780323 C.3       1 <1>        -0.020572 
     12 C          -1.981663   -1.192572   -0.298251 C.3       1 <1>         0.058982 
     13 C           2.430520   -0.808940    0.659525 C.3       1 <1>         0.077167 
     14 C           1.930306   -0.468854   -0.717799 C.2       1 <1>        -0.042292 
     15 C           0.381354    2.656480    0.411333 C.3       1 <1>        -0.058657 
     16 C          -1.580633    1.798106    1.690559 C.3       1 <1>        -0.058657 
     17 C          -0.275446   -2.549778    0.951128 C.3       1 <1>        -0.059249 
     18 C           2.821842   -0.671797   -1.913011 C.3       1 <1>        -0.041018 
     19 H          -1.689538    2.158621   -1.291702 H         1 <1>         0.033516 
     20 H          -1.445247   -0.992509    1.804346 H         1 <1>         0.033160 
     21 H           0.442677    1.459991   -2.234969 H         1 <1>         0.064340 
     22 H           1.790729    0.917899    1.763560 H         1 <1>         0.030200 
     23 H           1.198572   -0.559801    2.515058 H         1 <1>         0.030200 
     24 H          -2.932516    0.090782   -1.770470 H         1 <1>         0.029387 
     25 H          -3.252959    0.583317   -0.120175 H         1 <1>         0.029387 
     26 H          -1.524791   -1.724253   -1.150342 H         1 <1>         0.059611 
     27 H           2.439045   -1.902603    0.789238 H         1 <1>         0.064042 
     28 H          -1.005438    1.895390    2.623968 H         1 <1>         0.023535 
     29 H          -2.374209    1.070126    1.890498 H         1 <1>         0.023535 
     30 H          -2.069942    2.761747    1.481580 H         1 <1>         0.023535 
     31 H           0.767524    2.958479    1.396364 H         1 <1>         0.023535 
     32 H          -0.147368    3.531598    0.003605 H         1 <1>         0.023535 
     33 H           1.253493    2.470224   -0.231085 H         1 <1>         0.023535 
     34 H           0.317850   -2.774859    0.052391 H         1 <1>         0.023348 
     35 H          -1.061318   -3.317243    1.033058 H         1 <1>         0.023348 
     36 H           0.362377   -2.654934    1.839899 H         1 <1>         0.023348 
     37 H          -1.076943    0.108266   -3.459820 H         1 <1>         0.210230 
     38 H           3.145385   -1.722299   -1.955023 H         1 <1>         0.027526 
     39 H           2.292262   -0.427727   -2.845862 H         1 <1>         0.027526 
     40 H           3.707910   -0.025412   -1.828335 H         1 <1>         0.027526 
     41 H          -3.776171   -2.086947   -0.511425 H         1 <1>         0.209789 
     42 H           4.077424   -0.430167    1.735086 H         1 <1>         0.210218 
@<TRIPOS>BOND
     1    9    1 1    
     2    1   37 1    
     3   12    2 1    
     4    2   41 1    
     5   13    3 1    
     6    3   42 1    
     7    4    5 1    
     8    4    7 1    
     9    4    8 1    
    10   10    4 1    
    11    5    6 1    
    12    5   15 1    
    13    5   16 1    
    14    9    6 1    
    15    6   11 1    
    16    6   19 1    
    17    7   12 1    
    18    7   17 1    
    19    7   20 1    
    20    8    9 1    
    21    8   14 2    
    22    9   21 1    
    23   10   13 1    
    24   10   22 1    
    25   10   23 1    
    26   11   12 1    
    27   11   24 1    
    28   11   25 1    
    29   12   26 1    
    30   13   14 1    
    31   13   27 1    
    32   14   18 1    
    33   15   31 1    
    34   15   32 1    
    35   15   33 1    
    36   16   28 1    
    37   16   29 1    
    38   16   30 1    
    39   17   34 1    
    40   17   35 1    
    41   17   36 1    
    42   18   38 1    
    43   18   39 1    
    44   18   40 1    
@<TRIPOS>SUBSTRUCTURE
     1 ****        4 TEMP              0 ****  ****    0 ROOT 
@<TRIPOS>NORMAL
@<TRIPOS>FF_PBC
FORCE_FIELD_SETUP_FEATURE Force Field Setup information
v1.0  0 0.000000 0.000000 0.000000 0.000000 0.000000 0.000000 NONE 0 0 0 0 1 0 0 0 0 0 0 0 0
