@<TRIPOS>MOLECULE
MOL000597
   34    33     1     1     0
SMALL
GASTEIGER


@<TRIPOS>ATOM
      1 C           2.289920    0.606202   -0.720851 C.2       1 <1>        -0.074085 
      2 C           2.165328   -0.899375   -0.861788 C.3       1 <1>        -0.028491 
      3 C           1.290673    1.476300   -0.952762 C.2       1 <1>        -0.059103 
      4 C           3.654590    1.102528   -0.285763 C.3       1 <1>        -0.043707 
      5 C           1.750721   -1.556744    0.481615 C.3       1 <1>        -0.030847 
      6 C          -0.129795    1.172477   -1.368460 C.3       1 <1>         0.075485 
      7 C           0.451067   -0.978904    0.995182 C.2       1 <1>        -0.084989 
      8 O          -0.990219    1.881468   -0.453676 O.3       1 <1>        -0.311276 
      9 C          -0.762228   -1.537563    0.852452 C.2       1 <1>        -0.079608 
     10 C          -2.296970    1.757340   -0.726798 C.2       1 <1>         0.259328 
     11 C          -1.999369   -0.894180    1.441267 C.3       1 <1>        -0.044049 
     12 C          -0.991867   -2.833702    0.106736 C.3       1 <1>        -0.044049 
     13 C          -3.216321    2.488286    0.210911 C.3       1 <1>         0.021444 
     14 O          -2.731869    1.117224   -1.671757 O.2       1 <1>        -0.265273 
     15 H           3.136326   -1.318393   -1.172719 H         1 <1>         0.031286 
     16 H           1.454290   -1.177659   -1.652204 H         1 <1>         0.031286 
     17 H           1.483796    2.543223   -0.835525 H         1 <1>         0.059434 
     18 H           3.691879    2.190840   -0.127064 H         1 <1>         0.027437 
     19 H           3.944957    0.617496    0.657641 H         1 <1>         0.027437 
     20 H           4.399059    0.848551   -1.055332 H         1 <1>         0.027437 
     21 H           2.529182   -1.371255    1.238846 H         1 <1>         0.031044 
     22 H           1.692756   -2.649123    0.358199 H         1 <1>         0.031044 
     23 H          -0.381386    0.103496   -1.348590 H         1 <1>         0.061016 
     24 H          -0.266234    1.546446   -2.396499 H         1 <1>         0.061016 
     25 H           0.535773   -0.026770    1.521553 H         1 <1>         0.057155 
     26 H          -1.783696    0.038580    1.983694 H         1 <1>         0.027427 
     27 H          -2.716009   -0.664575    0.638988 H         1 <1>         0.027427 
     28 H          -2.470770   -1.597495    2.143949 H         1 <1>         0.027427 
     29 H          -2.035714   -2.916768   -0.231851 H         1 <1>         0.027427 
     30 H          -0.356688   -2.907294   -0.787820 H         1 <1>         0.027427 
     31 H          -0.776297   -3.679379    0.776504 H         1 <1>         0.027427 
     32 H          -4.215902    2.028648    0.200101 H         1 <1>         0.033023 
     33 H          -2.820805    2.454253    1.236935 H         1 <1>         0.033023 
     34 H          -3.298350    3.537153   -0.108861 H         1 <1>         0.033023 
@<TRIPOS>BOND
     1    1    2 1    
     2    1    3 2    
     3    1    4 1    
     4    2    5 1    
     5    2   15 1    
     6    2   16 1    
     7    3    6 1    
     8    3   17 1    
     9    4   18 1    
    10    4   19 1    
    11    4   20 1    
    12    5    7 1    
    13    5   21 1    
    14    5   22 1    
    15    6    8 1    
    16    6   23 1    
    17    6   24 1    
    18    7    9 2    
    19    7   25 1    
    20    8   10 1    
    21    9   11 1    
    22    9   12 1    
    23   10   13 1    
    24   10   14 2    
    25   11   26 1    
    26   11   27 1    
    27   11   28 1    
    28   12   29 1    
    29   12   30 1    
    30   12   31 1    
    31   13   32 1    
    32   13   33 1    
    33   13   34 1    
@<TRIPOS>SUBSTRUCTURE
     1 ****        1 TEMP              0 ****  ****    0 ROOT 
@<TRIPOS>NORMAL
@<TRIPOS>FF_PBC
FORCE_FIELD_SETUP_FEATURE Force Field Setup information
v1.0  0 0.000000 0.000000 0.000000 0.000000 0.000000 0.000000 NONE 0 0 0 0 1 0 0 0 0 0 0 0 0
