@<TRIPOS>MOLECULE
MOL004657
   40    42     1     1     0
SMALL
GASTEIGER


@<TRIPOS>ATOM
      1 O          -2.932567    2.027800    0.644839 O.3       1 <1>        -0.365030 
      2 C           0.125036   -0.891543   -1.035134 C.3       1 <1>        -0.029250 
      3 C           1.318595   -1.897114   -1.064028 C.3       1 <1>        -0.030966 
      4 C           1.135277    0.274092   -0.844074 C.3       1 <1>        -0.016342 
      5 C           2.307336   -0.739020   -0.766252 C.3       1 <1>        -0.040797 
      6 C          -2.056825    1.006742    1.069974 C.3       1 <1>         0.093224 
      7 C          -0.982737   -1.140384    0.031307 C.3       1 <1>        -0.046502 
      8 C          -1.633641    2.522917    0.813006 C.3       1 <1>         0.088402 
      9 C          -2.149717   -0.107845   -0.012176 C.3       1 <1>        -0.021261 
     10 C           0.994110    1.242398    0.316687 C.2       1 <1>        -0.073144 
     11 C          -0.780161    2.841269   -0.435682 C.3       1 <1>        -0.020183 
     12 C           1.541354   -2.503342   -2.479290 C.3       1 <1>        -0.059523 
     13 C           1.348020   -3.008876    0.023487 C.3       1 <1>        -0.059523 
     14 C           0.712506    2.684780   -0.056255 C.3       1 <1>        -0.029288 
     15 C          -2.350294    0.608782    2.540257 C.3       1 <1>        -0.033358 
     16 C           1.111917    0.881890    1.603053 C.2       1 <1>        -0.099174 
     17 H          -0.362143   -0.831603   -2.024539 H         1 <1>         0.031168 
     18 H           1.231069    0.820600   -1.798899 H         1 <1>         0.034853 
     19 H           2.787419   -0.808787    0.220109 H         1 <1>         0.027630 
     20 H           3.079175   -0.590406   -1.539446 H         1 <1>         0.027630 
     21 H          -1.403059   -2.127206   -0.226577 H         1 <1>         0.026918 
     22 H          -0.593830   -1.215721    1.051899 H         1 <1>         0.026918 
     23 H          -1.487135    3.132101    1.718203 H         1 <1>         0.062487 
     24 H          -3.091075   -0.633703    0.218130 H         1 <1>         0.029375 
     25 H          -2.275469    0.292890   -1.027932 H         1 <1>         0.029375 
     26 H          -0.983259    3.886623   -0.718166 H         1 <1>         0.029409 
     27 H          -1.028177    2.208754   -1.298472 H         1 <1>         0.029409 
     28 H           2.494653   -3.052447   -2.510993 H         1 <1>         0.023508 
     29 H           0.723651   -3.201301   -2.714879 H         1 <1>         0.023508 
     30 H           1.569249   -1.721722   -3.254519 H         1 <1>         0.023508 
     31 H           2.296399   -3.562377   -0.049086 H         1 <1>         0.023508 
     32 H           0.521925   -3.717581   -0.135643 H         1 <1>         0.023508 
     33 H           1.279797   -2.605854    1.043378 H         1 <1>         0.023508 
     34 H           0.939164    3.365437    0.780651 H         1 <1>         0.031080 
     35 H           1.353884    2.999164   -0.895318 H         1 <1>         0.031080 
     36 H          -2.463459    1.490490    3.188182 H         1 <1>         0.025813 
     37 H          -1.524993   -0.001898    2.932139 H         1 <1>         0.025813 
     38 H          -3.281619    0.025851    2.592313 H         1 <1>         0.025813 
     39 H           0.998242    1.609062    2.406231 H         1 <1>         0.053449 
     40 H           1.322814   -0.136321    1.920462 H         1 <1>         0.053449 
@<TRIPOS>BOND
     1    6    1 1    
     2    8    1 1    
     3    2    3 1    
     4    2    4 1    
     5    7    2 1    
     6    2   17 1    
     7    3    5 1    
     8    3   12 1    
     9    3   13 1    
    10    4    5 1    
    11    4   10 1    
    12    4   18 1    
    13    5   19 1    
    14    5   20 1    
    15    6    8 1    
    16    9    6 1    
    17    6   15 1    
    18    7    9 1    
    19    7   21 1    
    20    7   22 1    
    21    8   11 1    
    22    8   23 1    
    23    9   24 1    
    24    9   25 1    
    25   10   14 1    
    26   10   16 2    
    27   11   14 1    
    28   11   26 1    
    29   11   27 1    
    30   12   28 1    
    31   12   29 1    
    32   12   30 1    
    33   13   31 1    
    34   13   32 1    
    35   13   33 1    
    36   14   34 1    
    37   14   35 1    
    38   15   36 1    
    39   15   37 1    
    40   15   38 1    
    41   16   39 1    
    42   16   40 1    
@<TRIPOS>SUBSTRUCTURE
     1 ****        2 TEMP              0 ****  ****    0 ROOT 
@<TRIPOS>NORMAL
@<TRIPOS>FF_PBC
FORCE_FIELD_SETUP_FEATURE Force Field Setup information
v1.0  0 0.000000 0.000000 0.000000 0.000000 0.000000 0.000000 NONE 0 0 0 0 1 0 0 0 0 0 0 0 0
