@<TRIPOS>MOLECULE
MOL004690
   23    22     1     1     0
SMALL
GASTEIGER


@<TRIPOS>ATOM
      1 O          -0.202891    1.970822    1.256271 O.3       1 <1>        -0.386579 
      2 O           1.267570   -0.241896    2.179803 O.3       1 <1>        -0.386145 
      3 O          -1.443054   -0.612440   -1.091457 O.3       1 <1>        -0.389422 
      4 O           1.091178   -1.161232   -1.413234 O.3       1 <1>        -0.381901 
      5 O           2.271884   -3.208273    0.986534 O.2       1 <1>        -0.298200 
      6 C          -0.394615    0.654222    0.692712 C.3       1 <1>         0.109359 
      7 C           0.992346   -0.055099    0.772749 C.3       1 <1>         0.115790 
      8 C          -0.984826    0.710994   -0.749515 C.3       1 <1>         0.080789 
      9 C           1.058703   -1.408843    0.007578 C.3       1 <1>         0.138143 
     10 C          -2.191607    1.681566   -0.872818 C.3       1 <1>        -0.036423 
     11 C           2.318788   -2.157131    0.367701 C.2       1 <1>         0.151210 
     12 H          -1.009457    2.432829    1.458767 H         1 <1>         0.210002 
     13 H           2.142824   -0.556652    2.381308 H         1 <1>         0.210018 
     14 H          -1.743971   -0.688678   -1.991590 H         1 <1>         0.209877 
     15 H           1.068428   -1.961625   -1.929567 H         1 <1>         0.210454 
     16 H          -1.093556    0.079487    1.325749 H         1 <1>         0.064584 
     17 H           1.742671    0.625681    0.334557 H         1 <1>         0.065020 
     18 H          -0.191404    1.052230   -1.437891 H         1 <1>         0.061700 
     19 H           0.184464   -2.016430    0.298633 H         1 <1>         0.069684 
     20 H          -1.882522    2.727146   -0.723494 H         1 <1>         0.025527 
     21 H          -2.637302    1.609027   -1.876914 H         1 <1>         0.025527 
     22 H          -2.961097    1.420360   -0.130450 H         1 <1>         0.025527 
     23 H           3.286796   -1.754501    0.072041 H         1 <1>         0.105461 
@<TRIPOS>BOND
     1    6    1 1    
     2    1   12 1    
     3    7    2 1    
     4    2   13 1    
     5    8    3 1    
     6    3   14 1    
     7    9    4 1    
     8    4   15 1    
     9   11    5 2    
    10    7    6 1    
    11    6    8 1    
    12    6   16 1    
    13    9    7 1    
    14    7   17 1    
    15    8   10 1    
    16    8   18 1    
    17    9   11 1    
    18    9   19 1    
    19   10   20 1    
    20   10   21 1    
    21   10   22 1    
    22   11   23 1    
@<TRIPOS>SUBSTRUCTURE
     1 ****        1 TEMP              0 ****  ****    0 ROOT 
@<TRIPOS>NORMAL
@<TRIPOS>FF_PBC
FORCE_FIELD_SETUP_FEATURE Force Field Setup information
v1.0  0 0.000000 0.000000 0.000000 0.000000 0.000000 0.000000 NONE 0 0 0 0 1 0 0 0 0 0 0 0 0
