@<TRIPOS>MOLECULE
MOL002110
   26    25     1     1     0
SMALL
GASTEIGER


@<TRIPOS>ATOM
      1 C          -3.080167    3.074585   -0.000022 C.3       1 <1>        -0.043756 
      2 C          -1.686028    2.480561    0.000244 C.2       1 <1>        -0.075705 
      3 C          -1.529292    1.146989    0.000617 C.2       1 <1>        -0.063032 
      4 C          -0.512069    3.437558    0.000025 C.3       1 <1>        -0.043756 
      5 C          -0.237394    0.419361    0.001182 C.2       1 <1>        -0.061577 
      6 C          -0.159267   -0.920721   -0.000763 C.2       1 <1>        -0.059143 
      7 C           1.047891   -1.796267   -0.000531 C.2       1 <1>        -0.054623 
      8 C           0.866058   -3.129245   -0.000449 C.2       1 <1>        -0.084188 
      9 C           2.464168   -1.253144   -0.000537 C.3       1 <1>        -0.040013 
     10 C           1.984865   -4.145619   -0.000101 C.3       1 <1>        -0.046281 
     11 H          -3.096530    4.174186    0.001142 H         1 <1>         0.027436 
     12 H          -3.620611    2.729366   -0.894558 H         1 <1>         0.027436 
     13 H          -3.621794    2.727591    0.893115 H         1 <1>         0.027436 
     14 H          -2.441266    0.548358    0.000506 H         1 <1>         0.061699 
     15 H          -0.809122    4.496329   -0.001361 H         1 <1>         0.027436 
     16 H           0.102604    3.263996   -0.896074 H         1 <1>         0.027436 
     17 H           0.101359    3.265891    0.897338 H         1 <1>         0.027436 
     18 H           0.662063    1.024411    0.003385 H         1 <1>         0.061765 
     19 H          -1.122215   -1.432503   -0.002750 H         1 <1>         0.062011 
     20 H          -0.143524   -3.544468   -0.000653 H         1 <1>         0.057187 
     21 H           2.537292   -0.160716   -0.004332 H         1 <1>         0.027744 
     22 H           2.994919   -1.606019    0.895927 H         1 <1>         0.027744 
     23 H           2.997394   -1.611735   -0.893245 H         1 <1>         0.027744 
     24 H           1.577727   -5.168938    0.002914 H         1 <1>         0.027188 
     25 H           2.608981   -4.033430   -0.898899 H         1 <1>         0.027188 
     26 H           2.612340   -4.029517    0.895853 H         1 <1>         0.027188 
@<TRIPOS>BOND
     1    1    2 1    
     2    1   11 1    
     3    1   12 1    
     4    1   13 1    
     5    2    3 2    
     6    2    4 1    
     7    3    5 1    
     8    3   14 1    
     9    4   15 1    
    10    4   16 1    
    11    4   17 1    
    12    5    6 2    
    13    5   18 1    
    14    6    7 1    
    15    6   19 1    
    16    7    8 2    
    17    7    9 1    
    18    8   10 1    
    19    8   20 1    
    20    9   21 1    
    21    9   22 1    
    22    9   23 1    
    23   10   24 1    
    24   10   25 1    
    25   10   26 1    
@<TRIPOS>SUBSTRUCTURE
     1 ****        1 TEMP              0 ****  ****    0 ROOT 
@<TRIPOS>NORMAL
@<TRIPOS>FF_PBC
FORCE_FIELD_SETUP_FEATURE Force Field Setup information
v1.0  0 0.000000 0.000000 0.000000 0.000000 0.000000 0.000000 NONE 0 0 0 0 1 0 0 0 0 0 0 0 0
