@<TRIPOS>MOLECULE
MOL005293
   32    31     1     1     0
SMALL
GASTEIGER


@<TRIPOS>ATOM
      1 C          -0.816754    0.107543   -0.079431 C.3       1 <1>        -0.032542 
      2 C           0.585526    0.821773   -0.080203 C.3       1 <1>        -0.047645 
      3 C          -1.874613    1.249674   -0.304022 C.3       1 <1>        -0.050480 
      4 C          -1.038265   -0.606539    1.302369 C.3       1 <1>        -0.050480 
      5 C          -0.869999   -0.905973   -1.262699 C.3       1 <1>        -0.059577 
      6 C           1.846593   -0.082900   -0.237340 C.3       1 <1>        -0.052813 
      7 C           3.152877    0.743007   -0.068062 C.3       1 <1>        -0.055894 
      8 C          -3.378855    0.895083   -0.146343 C.3       1 <1>        -0.064783 
      9 C          -1.994615   -1.835434    1.312724 C.3       1 <1>        -0.064783 
     10 C           4.413276   -0.142496   -0.253120 C.3       1 <1>        -0.065276 
     11 H           0.632118    1.544493   -0.911730 H         1 <1>         0.027051 
     12 H           0.679600    1.394773    0.856767 H         1 <1>         0.027051 
     13 H          -1.745250    1.657368   -1.320770 H         1 <1>         0.026787 
     14 H          -1.674748    2.071107    0.404900 H         1 <1>         0.026787 
     15 H          -0.086507   -0.988992    1.697532 H         1 <1>         0.026787 
     16 H          -1.397266    0.136862    2.032346 H         1 <1>         0.026787 
     17 H          -0.583493   -0.412078   -2.203836 H         1 <1>         0.023507 
     18 H          -0.184061   -1.748141   -1.090409 H         1 <1>         0.023507 
     19 H          -1.875532   -1.324777   -1.400733 H         1 <1>         0.023507 
     20 H           1.858960   -0.897887    0.500512 H         1 <1>         0.026537 
     21 H           1.865297   -0.531992   -1.243311 H         1 <1>         0.026537 
     22 H           3.176265    1.558340   -0.810532 H         1 <1>         0.026265 
     23 H           3.179148    1.193374    0.938406 H         1 <1>         0.026265 
     24 H          -3.681279    0.072170   -0.808984 H         1 <1>         0.022994 
     25 H          -3.618367    0.636647    0.895568 H         1 <1>         0.022994 
     26 H          -3.989132    1.773984   -0.410347 H         1 <1>         0.022994 
     27 H          -1.558105   -2.677738    0.754390 H         1 <1>         0.022994 
     28 H          -2.981360   -1.619598    0.885747 H         1 <1>         0.022994 
     29 H          -2.146059   -2.171923    2.351071 H         1 <1>         0.022994 
     30 H           4.426505   -0.588073   -1.260016 H         1 <1>         0.022978 
     31 H           4.427304   -0.952899    0.492300 H         1 <1>         0.022978 
     32 H           5.324224    0.463947   -0.127370 H         1 <1>         0.022978 
@<TRIPOS>BOND
     1    1    2 1    
     2    1    3 1    
     3    1    4 1    
     4    1    5 1    
     5    2    6 1    
     6    2   11 1    
     7    2   12 1    
     8    3    8 1    
     9    3   13 1    
    10    3   14 1    
    11    4    9 1    
    12    4   15 1    
    13    4   16 1    
    14    5   17 1    
    15    5   18 1    
    16    5   19 1    
    17    6    7 1    
    18    6   20 1    
    19    6   21 1    
    20    7   10 1    
    21    7   22 1    
    22    7   23 1    
    23    8   24 1    
    24    8   25 1    
    25    8   26 1    
    26    9   27 1    
    27    9   28 1    
    28    9   29 1    
    29   10   30 1    
    30   10   31 1    
    31   10   32 1    
@<TRIPOS>SUBSTRUCTURE
     1 ****        1 TEMP              0 ****  ****    0 ROOT 
@<TRIPOS>NORMAL
@<TRIPOS>FF_PBC
FORCE_FIELD_SETUP_FEATURE Force Field Setup information
v1.0  0 0.000000 0.000000 0.000000 0.000000 0.000000 0.000000 NONE 0 0 0 0 1 0 0 0 0 0 0 0 0
