@<TRIPOS>MOLECULE
MOL002160
   29    29     1     1     0
SMALL
GASTEIGER


@<TRIPOS>ATOM
      1 C          -0.592670   -2.094012    0.608728 C.3       1 <1>         0.067014 
      2 C           0.794558   -2.030341   -0.083597 C.3       1 <1>        -0.005759 
      3 C           1.255699   -0.612119   -0.313880 C.2       1 <1>        -0.081823 
      4 C           0.444782    0.458009   -0.298753 C.2       1 <1>        -0.070698 
      5 C          -1.045319    0.333834   -0.053029 C.3       1 <1>        -0.028899 
      6 C          -1.550059   -1.129466   -0.139010 C.3       1 <1>        -0.020282 
      7 O          -1.116535   -3.434623    0.569352 O.3       1 <1>        -0.388533 
      8 C          -0.465887   -1.734878    2.114750 C.3       1 <1>        -0.035779 
      9 C           0.995289    1.856800   -0.534842 C.3       1 <1>        -0.025562 
     10 C           0.810554    2.252009   -2.024297 C.3       1 <1>        -0.058954 
     11 C           0.378945    2.928851    0.405522 C.3       1 <1>        -0.058954 
     12 H           0.749031   -2.516000   -1.070717 H         1 <1>         0.033505 
     13 H           1.529581   -2.577109    0.527896 H         1 <1>         0.033505 
     14 H           2.320758   -0.483922   -0.512228 H         1 <1>         0.057262 
     15 H          -1.275126    0.736472    0.945336 H         1 <1>         0.031096 
     16 H          -1.608199    0.928079   -0.789653 H         1 <1>         0.031096 
     17 H          -2.568156   -1.208582    0.276010 H         1 <1>         0.029588 
     18 H          -1.593425   -1.430507   -1.198893 H         1 <1>         0.029588 
     19 H          -1.243173   -3.768824   -0.312189 H         1 <1>         0.210160 
     20 H           0.107163   -2.518593    2.633491 H         1 <1>         0.025731 
     21 H           0.052740   -0.777741    2.270377 H         1 <1>         0.025731 
     22 H          -1.464676   -1.679533    2.573371 H         1 <1>         0.025731 
     23 H           2.080800    1.858969   -0.330271 H         1 <1>         0.034025 
     24 H           1.280742    1.497952   -2.675012 H         1 <1>         0.023536 
     25 H           1.282064    3.226982   -2.224245 H         1 <1>         0.023536 
     26 H          -0.255366    2.323373   -2.286022 H         1 <1>         0.023536 
     27 H           0.492329    2.617976    1.455931 H         1 <1>         0.023536 
     28 H           0.893299    3.893723    0.272413 H         1 <1>         0.023536 
     29 H          -0.689441    3.083325    0.193362 H         1 <1>         0.023536 
@<TRIPOS>BOND
     1    1    2 1    
     2    1    6 1    
     3    1    7 1    
     4    1    8 1    
     5    2    3 1    
     6    2   12 1    
     7    2   13 1    
     8    3    4 2    
     9    3   14 1    
    10    4    5 1    
    11    4    9 1    
    12    5    6 1    
    13    5   15 1    
    14    5   16 1    
    15    6   17 1    
    16    6   18 1    
    17    7   19 1    
    18    8   20 1    
    19    8   21 1    
    20    8   22 1    
    21    9   10 1    
    22    9   11 1    
    23    9   23 1    
    24   10   24 1    
    25   10   25 1    
    26   10   26 1    
    27   11   27 1    
    28   11   28 1    
    29   11   29 1    
@<TRIPOS>SUBSTRUCTURE
     1 ****        1 TEMP              0 ****  ****    0 ROOT 
@<TRIPOS>NORMAL
@<TRIPOS>FF_PBC
FORCE_FIELD_SETUP_FEATURE Force Field Setup information
v1.0  0 0.000000 0.000000 0.000000 0.000000 0.000000 0.000000 NONE 0 0 0 0 1 0 0 0 0 0 0 0 0
