@<TRIPOS>MOLECULE
MOL000365
   56    59     1     1     0
SMALL
GASTEIGER


@<TRIPOS>ATOM
      1 O          -0.157382   -3.075630   -5.150511 O.3       1 <1>        -0.355384 
      2 C          -0.725078   -2.706728   -3.927578 C.ar      1 <1>         0.132936 
      3 C          -1.046992   -3.764492   -2.933813 C.ar      1 <1>         0.108312 
      4 C          -1.600114   -3.412582   -1.679096 C.ar      1 <1>        -0.023346 
      5 C          -1.859880   -1.992238   -1.349374 C.ar      1 <1>        -0.013507 
      6 C          -1.582821   -0.999012   -2.303900 C.ar      1 <1>        -0.023346 
      7 C          -0.996359   -1.336832   -3.620698 C.ar      1 <1>         0.108312 
      8 O          -0.725755   -0.280761   -4.506663 O.3       1 <1>        -0.345252 
      9 C          -0.102550   -0.468449   -5.787572 C.3       1 <1>         0.043137 
     10 O          -0.785986   -5.097716   -3.282821 O.3       1 <1>        -0.345252 
     11 C          -1.055722   -6.187016   -2.384083 C.3       1 <1>         0.043137 
     12 O          -3.045734   -0.343581    0.050290 O.3       1 <1>        -0.371219 
     13 C          -2.416057   -1.636587    0.035857 C.3       1 <1>         0.089094 
     14 C          -1.317540   -1.574966    1.141685 C.3       1 <1>         0.020452 
     15 C          -1.428235   -0.122630    1.644985 C.3       1 <1>         0.020452 
     16 C          -2.912716    0.196448    1.371170 C.3       1 <1>         0.054370 
     17 O           0.277091   -0.369198   -0.034781 O.3       1 <1>        -0.371219 
     18 C           0.143923   -1.620166    0.645338 C.3       1 <1>         0.054370 
     19 C          -0.453881    0.632683    0.691627 C.3       1 <1>         0.089094 
     20 C           0.517989    1.619160    1.358210 C.ar      1 <1>        -0.013507 
     21 C           0.675103    2.976842    0.778018 C.ar      1 <1>        -0.023346 
     22 C           1.563074    3.917506    1.315886 C.ar      1 <1>         0.108312 
     23 C           2.358663    3.557168    2.522338 C.ar      1 <1>         0.132936 
     24 C           2.205148    2.269626    3.088594 C.ar      1 <1>         0.108312 
     25 C           1.280059    1.280438    2.490414 C.ar      1 <1>        -0.023346 
     26 O           2.940147    1.929562    4.225502 O.3       1 <1>        -0.345252 
     27 C           2.192286    1.994450    5.450932 C.3       1 <1>         0.043137 
     28 O           1.657231    5.164605    0.680125 O.3       1 <1>        -0.345252 
     29 C           2.657631    6.131899    1.029125 C.3       1 <1>         0.043137 
     30 O           3.247400    4.468549    3.103459 O.3       1 <1>        -0.355384 
     31 H           0.004333   -4.013148   -5.188788 H         1 <1>         0.217502 
     32 H          -1.842982   -4.162871   -0.936405 H         1 <1>         0.064768 
     33 H          -1.785943    0.043040   -2.088526 H         1 <1>         0.064768 
     34 H           0.014040    0.523281   -6.248529 H         1 <1>         0.052871 
     35 H           0.897181   -0.918806   -5.689051 H         1 <1>         0.052871 
     36 H          -0.737674   -1.079334   -6.446288 H         1 <1>         0.052871 
     37 H          -0.764664   -7.118800   -2.891367 H         1 <1>         0.052871 
     38 H          -2.127816   -6.250344   -2.137271 H         1 <1>         0.052871 
     39 H          -0.456948   -6.092214   -1.464459 H         1 <1>         0.052871 
     40 H          -3.192751   -2.368837    0.311050 H         1 <1>         0.064977 
     41 H          -1.507812   -2.318476    1.935665 H         1 <1>         0.035574 
     42 H          -1.160441   -0.016123    2.707946 H         1 <1>         0.035574 
     43 H          -3.571857   -0.334860    2.079398 H         1 <1>         0.056372 
     44 H          -3.136909    1.273489    1.404488 H         1 <1>         0.056372 
     45 H           0.836929   -1.649343    1.500736 H         1 <1>         0.056372 
     46 H           0.372698   -2.472867   -0.011457 H         1 <1>         0.056372 
     47 H          -1.025527    1.181454   -0.071073 H         1 <1>         0.064977 
     48 H           0.099528    3.266145   -0.093863 H         1 <1>         0.064768 
     49 H           1.211981    0.297817    2.939925 H         1 <1>         0.064768 
     50 H           2.869008    1.735559    6.278880 H         1 <1>         0.052871 
     51 H           1.353875    1.280788    5.443803 H         1 <1>         0.052871 
     52 H           1.803665    3.011818    5.616573 H         1 <1>         0.052871 
     53 H           2.565884    6.968687    0.321143 H         1 <1>         0.052871 
     54 H           3.668853    5.706438    0.937394 H         1 <1>         0.052871 
     55 H           2.493201    6.521431    2.044739 H         1 <1>         0.052871 
     56 H           3.734722    4.080183    3.824080 H         1 <1>         0.217502 
@<TRIPOS>BOND
     1    1    2 1    
     2    1   31 1    
     3    2    3 1    
     4    2    7 2    
     5    3    4 2    
     6    3   10 1    
     7    4    5 1    
     8    4   32 1    
     9    5    6 2    
    10    5   13 1    
    11    6    7 1    
    12    6   33 1    
    13    7    8 1    
    14    8    9 1    
    15    9   34 1    
    16    9   35 1    
    17    9   36 1    
    18   10   11 1    
    19   11   37 1    
    20   11   38 1    
    21   11   39 1    
    22   13   12 1    
    23   12   16 1    
    24   13   14 1    
    25   13   40 1    
    26   14   15 1    
    27   14   18 1    
    28   14   41 1    
    29   15   16 1    
    30   15   19 1    
    31   15   42 1    
    32   16   43 1    
    33   16   44 1    
    34   18   17 1    
    35   17   19 1    
    36   18   45 1    
    37   18   46 1    
    38   19   20 1    
    39   19   47 1    
    40   20   21 1    
    41   20   25 2    
    42   21   22 2    
    43   21   48 1    
    44   22   23 1    
    45   22   28 1    
    46   23   24 2    
    47   23   30 1    
    48   24   25 1    
    49   24   26 1    
    50   25   49 1    
    51   26   27 1    
    52   27   50 1    
    53   27   51 1    
    54   27   52 1    
    55   28   29 1    
    56   29   53 1    
    57   29   54 1    
    58   29   55 1    
    59   30   56 1    
@<TRIPOS>SUBSTRUCTURE
     1 ****        1 TEMP              0 ****  ****    0 ROOT 
@<TRIPOS>NORMAL
@<TRIPOS>FF_PBC
FORCE_FIELD_SETUP_FEATURE Force Field Setup information
v1.0  0 0.000000 0.000000 0.000000 0.000000 0.000000 0.000000 NONE 0 0 0 0 1 0 0 0 0 0 0 0 0
