@<TRIPOS>MOLECULE
MOL004594
   82    87     1     1     0
SMALL
GASTEIGER


@<TRIPOS>ATOM
      1 O          -1.719440    0.598182    1.356763 O.3       1 <1>        -0.367842 
      2 O          -3.428285    1.847954   -2.406099 O.3       1 <1>        -0.391131 
      3 O           5.487199   -3.030319    0.896028 O.3       1 <1>        -0.391162 
      4 O           4.214468   -0.605049   -2.488765 O.3       1 <1>        -0.394374 
      5 C          -0.599884    1.211743   -0.763471 C.3       1 <1>         0.009124 
      6 C          -2.835558   -0.226168   -0.501860 C.3       1 <1>         0.002843 
      7 C          -0.504705   -1.078040    0.021362 C.2       1 <1>        -0.055410 
      8 C           0.748634   -0.945204    0.453370 C.2       1 <1>        -0.081074 
      9 C          -4.930256   -2.587931   -1.752320 C.3       1 <1>        -0.059801 
     10 C          -1.412482    0.117283    0.033083 C.3       1 <1>         0.096991 
     11 C           0.851337    1.476152   -0.057297 C.3       1 <1>        -0.016907 
     12 C          -3.564893    1.068875   -0.082831 C.3       1 <1>         0.025848 
     13 C           1.225465    0.372509    1.018942 C.3       1 <1>        -0.011151 
     14 C           2.678230    0.302237    1.665725 C.3       1 <1>        -0.021745 
     15 C          -1.546088    2.470901   -0.875274 C.3       1 <1>        -0.017380 
     16 C          -3.074292    2.188752   -1.053263 C.3       1 <1>         0.063916 
     17 C           3.802132    0.357548    0.557700 C.3       1 <1>        -0.025216 
     18 C           2.055933    1.457786   -1.066798 C.3       1 <1>        -0.046183 
     19 C          -2.988939    1.281640    1.350399 C.3       1 <1>         0.057154 
     20 C          -3.575037   -1.451892    0.117573 C.3       1 <1>        -0.041426 
     21 C          -5.122240    0.909855   -0.086765 C.3       1 <1>        -0.042066 
     22 C           3.495313    1.498921   -0.469763 C.3       1 <1>        -0.048517 
     23 C          -0.434803    0.722592   -2.252881 C.3       1 <1>        -0.056020 
     24 C          -4.995081   -1.625684   -0.524670 C.3       1 <1>        -0.034485 
     25 C           4.446154   -0.975711   -0.026182 C.3       1 <1>         0.020282 
     26 C           0.855333    2.892695    0.613282 C.3       1 <1>        -0.058408 
     27 C           2.807186   -0.967299    2.601481 C.3       1 <1>        -0.044446 
     28 C          -5.558390   -0.250370   -1.015622 C.3       1 <1>        -0.047195 
     29 C           2.953846    1.485737    2.681334 C.3       1 <1>        -0.058736 
     30 C           4.344052   -2.156923    1.003201 C.3       1 <1>         0.062974 
     31 C           4.189806   -1.654562    2.461714 C.3       1 <1>        -0.025737 
     32 C           3.875735   -1.479872   -1.395470 C.3       1 <1>         0.052200 
     33 C          -5.952881   -2.268419    0.525830 C.3       1 <1>        -0.059801 
     34 C           5.974776   -0.726676   -0.299777 C.3       1 <1>        -0.054830 
     35 H          -3.203193    2.521844   -3.040256 H         1 <1>         0.209802 
     36 H           5.459514   -3.787671    1.472858 H         1 <1>         0.209801 
     37 H           3.897353   -0.906847   -3.335198 H         1 <1>         0.209420 
     38 H          -2.837772   -0.422316   -1.578588 H         1 <1>         0.033899 
     39 H          -0.821672   -2.043842   -0.368203 H         1 <1>         0.059762 
     40 H           1.359439   -1.835483    0.361977 H         1 <1>         0.057297 
     41 H          -5.918532   -2.663277   -2.231868 H         1 <1>         0.023499 
     42 H          -4.622714   -3.599751   -1.446143 H         1 <1>         0.023499 
     43 H          -4.211940   -2.229315   -2.504607 H         1 <1>         0.023499 
     44 H           0.576293    0.520419    1.893173 H         1 <1>         0.035379 
     45 H          -1.204335    3.143716   -1.677881 H         1 <1>         0.029668 
     46 H          -1.544106    3.067095    0.039465 H         1 <1>         0.029668 
     47 H          -3.632957    3.113364   -0.810306 H         1 <1>         0.059965 
     48 H           4.666043    0.759860    1.111455 H         1 <1>         0.031300 
     49 H           2.043601    0.540011   -1.658529 H         1 <1>         0.027097 
     50 H           1.970756    2.313148   -1.757103 H         1 <1>         0.027097 
     51 H          -2.926934    2.336496    1.653115 H         1 <1>         0.056652 
     52 H          -3.571090    0.784433    2.139341 H         1 <1>         0.056652 
     53 H          -3.024522   -2.390592   -0.028828 H         1 <1>         0.027428 
     54 H          -3.651969   -1.322345    1.205271 H         1 <1>         0.027428 
     55 H          -5.606932    1.843805   -0.413112 H         1 <1>         0.027239 
     56 H          -5.516329    0.689609    0.915697 H         1 <1>         0.027239 
     57 H           4.218086    1.465423   -1.297118 H         1 <1>         0.026847 
     58 H           3.665464    2.489718   -0.027478 H         1 <1>         0.026847 
     59 H           0.151697    1.433788   -2.849300 H         1 <1>         0.023625 
     60 H           0.034041   -0.268770   -2.328279 H         1 <1>         0.023625 
     61 H          -1.374111    0.650292   -2.806992 H         1 <1>         0.023625 
     62 H           0.167341    2.924769    1.471869 H         1 <1>         0.023543 
     63 H           1.810924    3.231669    0.990324 H         1 <1>         0.023543 
     64 H           0.605281    3.678131   -0.114082 H         1 <1>         0.023543 
     65 H           2.651289   -0.732155    3.668276 H         1 <1>         0.027158 
     66 H           2.047830   -1.739361    2.436211 H         1 <1>         0.027158 
     67 H          -5.195723   -0.012283   -2.028120 H         1 <1>         0.027062 
     68 H          -6.658234   -0.292460   -1.077344 H         1 <1>         0.027062 
     69 H           3.762771    1.227493    3.384159 H         1 <1>         0.023534 
     70 H           3.327494    2.415841    2.247944 H         1 <1>         0.023534 
     71 H           2.062499    1.717310    3.283975 H         1 <1>         0.023534 
     72 H           3.464210   -2.780698    0.773517 H         1 <1>         0.059936 
     73 H           5.015480   -0.979960    2.734503 H         1 <1>         0.029039 
     74 H           4.226666   -2.514453    3.152129 H         1 <1>         0.029039 
     75 H           4.320204   -2.466563   -1.616079 H         1 <1>         0.056334 
     76 H           2.790444   -1.624078   -1.359740 H         1 <1>         0.056334 
     77 H          -6.094838   -1.612034    1.396775 H         1 <1>         0.023499 
     78 H          -6.942440   -2.467480    0.086360 H         1 <1>         0.023499 
     79 H          -5.539121   -3.224108    0.883259 H         1 <1>         0.023499 
     80 H           6.443645   -1.574078   -0.823771 H         1 <1>         0.023667 
     81 H           6.529407   -0.581455    0.640457 H         1 <1>         0.023667 
     82 H           6.138410    0.162093   -0.925209 H         1 <1>         0.023667 
@<TRIPOS>BOND
     1   10    1 1    
     2    1   19 1    
     3   16    2 1    
     4    2   35 1    
     5   30    3 1    
     6    3   36 1    
     7   32    4 1    
     8    4   37 1    
     9    5   10 1    
    10   11    5 1    
    11    5   15 1    
    12    5   23 1    
    13   10    6 1    
    14    6   12 1    
    15    6   20 1    
    16    6   38 1    
    17    8    7 2    
    18    7   10 1    
    19    7   39 1    
    20   13    8 1    
    21    8   40 1    
    22   24    9 1    
    23    9   41 1    
    24    9   42 1    
    25    9   43 1    
    26   13   11 1    
    27   18   11 1    
    28   11   26 1    
    29   16   12 1    
    30   12   19 1    
    31   12   21 1    
    32   14   13 1    
    33   13   44 1    
    34   17   14 1    
    35   14   27 1    
    36   14   29 1    
    37   15   16 1    
    38   15   45 1    
    39   15   46 1    
    40   16   47 1    
    41   17   22 1    
    42   25   17 1    
    43   17   48 1    
    44   22   18 1    
    45   18   49 1    
    46   18   50 1    
    47   19   51 1    
    48   19   52 1    
    49   20   24 1    
    50   20   53 1    
    51   20   54 1    
    52   21   28 1    
    53   21   55 1    
    54   21   56 1    
    55   22   57 1    
    56   22   58 1    
    57   23   59 1    
    58   23   60 1    
    59   23   61 1    
    60   24   28 1    
    61   24   33 1    
    62   25   30 1    
    63   25   32 1    
    64   25   34 1    
    65   26   62 1    
    66   26   63 1    
    67   26   64 1    
    68   27   31 1    
    69   27   65 1    
    70   27   66 1    
    71   28   67 1    
    72   28   68 1    
    73   29   69 1    
    74   29   70 1    
    75   29   71 1    
    76   30   31 1    
    77   30   72 1    
    78   31   73 1    
    79   31   74 1    
    80   32   75 1    
    81   32   76 1    
    82   33   77 1    
    83   33   78 1    
    84   33   79 1    
    85   34   80 1    
    86   34   81 1    
    87   34   82 1    
@<TRIPOS>SUBSTRUCTURE
     1 ****        7 TEMP              0 ****  ****    0 ROOT 
@<TRIPOS>NORMAL
@<TRIPOS>FF_PBC
FORCE_FIELD_SETUP_FEATURE Force Field Setup information
v1.0  0 0.000000 0.000000 0.000000 0.000000 0.000000 0.000000 NONE 0 0 0 0 1 0 0 0 0 0 0 0 0
