@<TRIPOS>MOLECULE
MOL002312
   75    78     1     1     0
SMALL
GASTEIGER


@<TRIPOS>ATOM
      1 C          -5.491312    2.564067    2.567436 C.ar      1 <1>         0.105520 
      2 C          -6.902250    2.241602    3.015943 C.ar      1 <1>         0.132457 
      3 C          -7.267099    0.822939    3.249696 C.ar      1 <1>         0.105520 
      4 C          -6.326324   -0.163636    3.039345 C.ar      1 <1>        -0.016369 
      5 C          -4.943741    0.146465    2.591593 C.ar      1 <1>         0.051495 
      6 C          -4.535264    1.444203    2.385218 C.ar      1 <1>        -0.016369 
      7 O          -5.113801    3.889339    2.333296 O.3       1 <1>        -0.357199 
      8 O          -7.838198    3.260663    3.203213 O.3       1 <1>        -0.355395 
      9 O          -8.564645    0.518696    3.678402 O.3       1 <1>        -0.357199 
     10 C          -4.011150   -1.030297    2.394825 C.2       1 <1>         0.294062 
     11 O          -3.447077   -1.399638    1.233094 O.3       1 <1>        -0.308388 
     12 O          -3.779259   -1.722979    3.370155 O.2       1 <1>        -0.259222 
     13 C          -3.687652   -0.552700    0.090984 C.3       1 <1>         0.090906 
     14 C          -3.242845   -1.326815   -1.182639 C.3       1 <1>         0.143333 
     15 C          -1.893917   -2.071272   -1.000979 C.3       1 <1>         0.138739 
     16 C          -1.179530   -1.867430   -2.362931 C.3       1 <1>         0.187962 
     17 O          -2.155666   -1.263320   -3.222735 O.3       1 <1>        -0.345689 
     18 C          -2.965816   -0.413834   -2.401481 C.3       1 <1>         0.084310 
     19 O          -0.090952   -0.942640   -2.168392 O.3       1 <1>        -0.346049 
     20 C           0.678892   -0.708293   -3.364149 C.3       1 <1>         0.079556 
     21 C           1.880619    0.205738   -3.010744 C.3       1 <1>         0.113377 
     22 C           2.794317    0.408170   -4.249595 C.3       1 <1>         0.111906 
     23 C           4.060316    1.211562   -3.858545 C.3       1 <1>         0.114074 
     24 C           4.762038    0.524873   -2.660636 C.3       1 <1>         0.134509 
     25 C           3.749722    0.364164   -1.502309 C.3       1 <1>         0.193670 
     26 O           2.614772   -0.409240   -1.930507 O.3       1 <1>        -0.340158 
     27 O           4.938045    1.269550   -4.999006 O.3       1 <1>        -0.386401 
     28 O           4.430123   -0.364771   -0.472448 O.3       1 <1>        -0.311771 
     29 O          -4.271705   -2.265442   -1.552645 O.3       1 <1>        -0.381218 
     30 O          -2.119870   -3.456256   -0.658544 O.3       1 <1>        -0.383740 
     31 O           2.052653    1.098611   -5.272068 O.3       1 <1>        -0.386488 
     32 O           5.883894    1.329105   -2.242493 O.3       1 <1>        -0.384091 
     33 C           4.047286   -0.136825    0.848549 C.ar      1 <1>         0.092348 
     34 C           5.048935    0.162816    1.812123 C.ar      1 <1>         0.047307 
     35 C           4.650569    0.401687    3.221077 C.ar      1 <1>        -0.046348 
     36 C           3.303829    0.346839    3.592043 C.ar      1 <1>        -0.030868 
     37 C           2.247506    0.044688    2.599651 C.ar      1 <1>         0.078298 
     38 C           2.618460   -0.202673    1.245744 C.ar      1 <1>        -0.000862 
     39 O           0.915887    0.014190    3.035331 O.3       1 <1>        -0.347829 
     40 C           6.502920    0.240820    1.389570 C.2       1 <1>         0.162584 
     41 C           7.616061    0.158232    2.400160 C.3       1 <1>        -0.001323 
     42 O           6.794622    0.389547    0.212743 O.2       1 <1>        -0.292269 
     43 C          -0.149334   -0.450236    2.193316 C.3       1 <1>         0.043027 
     44 H          -6.590606   -1.202994    3.204282 H         1 <1>         0.065181 
     45 H          -3.512345    1.656413    2.097303 H         1 <1>         0.065181 
     46 H          -4.222753    3.987243    2.018393 H         1 <1>         0.217423 
     47 H          -8.677527    2.910567    3.484485 H         1 <1>         0.217501 
     48 H          -8.710618   -0.393930    3.904632 H         1 <1>         0.217423 
     49 H          -3.082744    0.359686    0.189598 H         1 <1>         0.059635 
     50 H          -4.748081   -0.281391   -0.038767 H         1 <1>         0.059635 
     51 H          -1.300661   -1.582552   -0.213498 H         1 <1>         0.067462 
     52 H          -0.835665   -2.829193   -2.776915 H         1 <1>         0.093741 
     53 H          -3.888987   -0.109142   -2.917023 H         1 <1>         0.059108 
     54 H          -2.384651    0.482336   -2.129109 H         1 <1>         0.059108 
     55 H           1.074405   -1.661792   -3.748858 H         1 <1>         0.058744 
     56 H           0.057219   -0.236911   -4.142972 H         1 <1>         0.058744 
     57 H           1.477172    1.178456   -2.682309 H         1 <1>         0.064677 
     58 H           3.119432   -0.580015   -4.619046 H         1 <1>         0.064673 
     59 H           3.756167    2.232849   -3.570274 H         1 <1>         0.064758 
     60 H           5.107053   -0.476060   -2.972930 H         1 <1>         0.067108 
     61 H           3.470068    1.370350   -1.144011 H         1 <1>         0.094160 
     62 H           5.745054    1.737214   -4.801060 H         1 <1>         0.210005 
     63 H          -4.348989   -2.952614   -0.896805 H         1 <1>         0.210476 
     64 H          -1.311975   -3.944797   -0.535471 H         1 <1>         0.210125 
     65 H           2.583594    1.258005   -6.047964 H         1 <1>         0.210004 
     66 H           6.321663    0.955072   -1.477500 H         1 <1>         0.210111 
     67 H           5.396922    0.625479    3.975254 H         1 <1>         0.062610 
     68 H           3.016992    0.526511    4.622945 H         1 <1>         0.064349 
     69 H           1.879503   -0.438667    0.492211 H         1 <1>         0.066938 
     70 H           8.576494   -0.042538    1.901036 H         1 <1>         0.030933 
     71 H           7.420018   -0.656891    3.112744 H         1 <1>         0.030933 
     72 H           7.694698    1.111043    2.943979 H         1 <1>         0.030933 
     73 H          -1.079650   -0.428185    2.779876 H         1 <1>         0.052870 
     74 H          -0.277628    0.205240    1.318468 H         1 <1>         0.052870 
     75 H           0.039167   -1.487362    1.876747 H         1 <1>         0.052870 
@<TRIPOS>BOND
     1    1    2 2    
     2    1    6 1    
     3    1    7 1    
     4    2    3 1    
     5    2    8 1    
     6    3    4 2    
     7    3    9 1    
     8    4    5 1    
     9    4   44 1    
    10    5    6 2    
    11    5   10 1    
    12    6   45 1    
    13    7   46 1    
    14    8   47 1    
    15    9   48 1    
    16   10   11 1    
    17   10   12 2    
    18   11   13 1    
    19   13   14 1    
    20   13   49 1    
    21   13   50 1    
    22   14   15 1    
    23   14   18 1    
    24   14   29 1    
    25   15   16 1    
    26   15   30 1    
    27   15   51 1    
    28   16   17 1    
    29   16   19 1    
    30   16   52 1    
    31   17   18 1    
    32   18   53 1    
    33   18   54 1    
    34   19   20 1    
    35   20   21 1    
    36   20   55 1    
    37   20   56 1    
    38   21   22 1    
    39   21   26 1    
    40   21   57 1    
    41   22   23 1    
    42   22   31 1    
    43   22   58 1    
    44   23   24 1    
    45   23   27 1    
    46   23   59 1    
    47   24   25 1    
    48   24   32 1    
    49   24   60 1    
    50   25   26 1    
    51   25   28 1    
    52   25   61 1    
    53   27   62 1    
    54   28   33 1    
    55   29   63 1    
    56   30   64 1    
    57   31   65 1    
    58   32   66 1    
    59   33   34 2    
    60   33   38 1    
    61   34   35 1    
    62   34   40 1    
    63   35   36 2    
    64   35   67 1    
    65   36   37 1    
    66   36   68 1    
    67   37   38 2    
    68   37   39 1    
    69   38   69 1    
    70   39   43 1    
    71   40   41 1    
    72   40   42 2    
    73   41   70 1    
    74   41   71 1    
    75   41   72 1    
    76   43   73 1    
    77   43   74 1    
    78   43   75 1    
@<TRIPOS>SUBSTRUCTURE
     1 ****        1 TEMP              0 ****  ****    0 ROOT 
@<TRIPOS>NORMAL
@<TRIPOS>FF_PBC
FORCE_FIELD_SETUP_FEATURE Force Field Setup information
v1.0  0 0.000000 0.000000 0.000000 0.000000 0.000000 0.000000 NONE 0 0 0 0 1 0 0 0 0 0 0 0 0
