@<TRIPOS>MOLECULE
MOL004968
   37    38     1     1     0
SMALL
GASTEIGER


@<TRIPOS>ATOM
      1 O          -6.187447    1.058205    0.787124 O.3       1 <1>        -0.357213 
      2 O           6.384920   -1.808349    0.392306 O.3       1 <1>        -0.357261 
      3 O           5.947713   -0.725320   -2.233376 O.3       1 <1>        -0.357274 
      4 C          -0.496456   -0.234121    0.600807 C.3       1 <1>        -0.006642 
      5 C          -1.997547    0.076262    0.758020 C.ar      1 <1>        -0.010988 
      6 C           0.320282   -0.860404    1.706796 C.2       1 <1>        -0.079062 
      7 C          -2.674296    0.577919   -0.466311 C.ar      1 <1>         0.111413 
      8 C           2.682000   -1.001432    0.592915 C.ar      1 <1>        -0.022724 
      9 C          -2.748408   -0.073940    1.938892 C.ar      1 <1>        -0.053234 
     10 C           1.630915   -1.164297    1.681742 C.2       1 <1>        -0.058128 
     11 C          -4.042272    0.894513   -0.454110 C.ar      1 <1>         0.132947 
     12 C          -4.193649    0.257513    1.954191 C.ar      1 <1>        -0.028973 
     13 C          -4.826443    0.732052    0.795313 C.ar      1 <1>         0.104798 
     14 C           4.058595   -1.453367    0.933373 C.ar      1 <1>        -0.022261 
     15 C           2.481898   -0.471318   -0.699361 C.ar      1 <1>        -0.052010 
     16 C           5.114245   -1.365947    0.020578 C.ar      1 <1>         0.102746 
     17 C           3.594554   -0.372012   -1.673125 C.ar      1 <1>        -0.028850 
     18 C           4.880788   -0.806470   -1.331934 C.ar      1 <1>         0.102220 
     19 O          -4.666941    1.359266   -1.615769 O.3       1 <1>        -0.355383 
     20 H          -6.635543    0.906925    1.611962 H         1 <1>         0.217423 
     21 H           7.008762   -1.704859   -0.319827 H         1 <1>         0.217422 
     22 H           5.716983   -0.368650   -3.083722 H         1 <1>         0.217422 
     23 H          -0.446847   -0.920384   -0.258696 H         1 <1>         0.035642 
     24 H          -0.041450    0.737942    0.357325 H         1 <1>         0.035642 
     25 H          -0.189105   -1.104711    2.637329 H         1 <1>         0.057548 
     26 O          -1.926722    0.725702   -1.639205 O.3       1 <1>        -0.344979 
     27 H          -2.303512   -0.428648    2.858877 H         1 <1>         0.062199 
     28 H           2.013060   -1.609231    2.603967 H         1 <1>         0.062043 
     29 H          -4.754945    0.128190    2.873836 H         1 <1>         0.064414 
     30 H           4.272273   -1.866979    1.912593 H         1 <1>         0.064993 
     31 H           1.525296   -0.118084   -1.041676 H         1 <1>         0.062425 
     32 H           3.395395    0.042485   -2.655069 H         1 <1>         0.064421 
     33 H          -5.592207    1.527402   -1.467594 H         1 <1>         0.217502 
     34 C          -1.675377    2.082865   -2.038707 C.3       1 <1>         0.043149 
     35 H          -1.041514    2.056130   -2.936222 H         1 <1>         0.052871 
     36 H          -2.606999    2.612584   -2.286473 H         1 <1>         0.052871 
     37 H          -1.143970    2.634202   -1.247539 H         1 <1>         0.052871 
@<TRIPOS>BOND
     1   13    1 1    
     2    1   20 1    
     3   16    2 1    
     4    2   21 1    
     5   18    3 1    
     6    3   22 1    
     7    4    5 1    
     8    6    4 1    
     9    4   23 1    
    10    4   24 1    
    11    5    7 1    
    12    5    9 2    
    13   10    6 2    
    14    6   25 1    
    15    7   11 2    
    16    7   26 1    
    17    8   10 1    
    18   14    8 1    
    19    8   15 2    
    20    9   12 1    
    21    9   27 1    
    22   10   28 1    
    23   11   13 1    
    24   11   19 1    
    25   12   13 2    
    26   12   29 1    
    27   16   14 2    
    28   14   30 1    
    29   15   17 1    
    30   15   31 1    
    31   16   18 1    
    32   17   18 2    
    33   17   32 1    
    34   19   33 1    
    35   26   34 1    
    36   34   35 1    
    37   34   36 1    
    38   34   37 1    
@<TRIPOS>SUBSTRUCTURE
     1 ****        4 TEMP              0 ****  ****    0 ROOT 
@<TRIPOS>NORMAL
@<TRIPOS>FF_PBC
FORCE_FIELD_SETUP_FEATURE Force Field Setup information
v1.0  0 0.000000 0.000000 0.000000 0.000000 0.000000 0.000000 NONE 0 0 0 0 1 0 0 0 0 0 0 0 0
