@<TRIPOS>MOLECULE
MOL001097
   18    18     1     1     0
SMALL
GASTEIGER


@<TRIPOS>ATOM
      1 C          -1.742654   -0.139731    0.000036 C.ar      1 <1>        -0.058589 
      2 C          -1.743377   -1.621245    0.000046 C.ar      1 <1>        -0.061494 
      3 C          -0.532374   -2.320370    0.000063 C.ar      1 <1>        -0.061494 
      4 C           0.750270   -1.578954    0.000012 C.ar      1 <1>        -0.058589 
      5 C           0.764113   -0.164326   -0.000031 C.ar      1 <1>        -0.047537 
      6 C          -0.524352    0.579602    0.000020 C.ar      1 <1>        -0.047537 
      7 C          -0.533527    2.114083    0.000076 C.3       1 <1>        -0.039460 
      8 C           2.097613    0.594949   -0.000151 C.3       1 <1>        -0.039460 
      9 H          -2.691998    0.385154    0.000046 H         1 <1>         0.062028 
     10 H          -2.684839   -2.161375    0.000054 H         1 <1>         0.061767 
     11 H          -0.529368   -3.405769    0.000099 H         1 <1>         0.061767 
     12 H           1.679506   -2.138671    0.000005 H         1 <1>         0.062028 
     13 H          -1.556455    2.519117   -0.000136 H         1 <1>         0.027762 
     14 H          -0.016779    2.484890    0.897223 H         1 <1>         0.027762 
     15 H          -0.016367    2.485002   -0.896789 H         1 <1>         0.027762 
     16 H           2.959851   -0.088412    0.000063 H         1 <1>         0.027762 
     17 H           2.160347    1.227838   -0.897322 H         1 <1>         0.027762 
     18 H           2.160287    1.228317    0.896687 H         1 <1>         0.027762 
@<TRIPOS>BOND
     1    1    2 1    
     2    1    6 2    
     3    1    9 1    
     4    2    3 2    
     5    2   10 1    
     6    3    4 1    
     7    3   11 1    
     8    4    5 2    
     9    4   12 1    
    10    5    6 1    
    11    5    8 1    
    12    6    7 1    
    13    7   13 1    
    14    7   14 1    
    15    7   15 1    
    16    8   16 1    
    17    8   17 1    
    18    8   18 1    
@<TRIPOS>SUBSTRUCTURE
     1 ****        1 TEMP              0 ****  ****    0 ROOT 
@<TRIPOS>NORMAL
@<TRIPOS>FF_PBC
FORCE_FIELD_SETUP_FEATURE Force Field Setup information
v1.0  0 0.000000 0.000000 0.000000 0.000000 0.000000 0.000000 NONE 0 0 0 0 1 0 0 0 0 0 0 0 0
