@<TRIPOS>MOLECULE
MOL002338
   40    42     1     1     0
SMALL
GASTEIGER


@<TRIPOS>ATOM
      1 O          -1.776031   -1.025991   -1.821755 O.3       1 <1>        -0.388544 
      2 C           0.593156   -0.775070    0.093045 C.3       1 <1>        -0.026317 
      3 C           1.346943   -1.117868    1.413805 C.3       1 <1>        -0.028316 
      4 C           2.015084   -0.193058    0.365578 C.3       1 <1>        -0.031638 
      5 C          -0.678730    0.132839    0.130793 C.3       1 <1>        -0.002313 
      6 C          -0.587905    1.485626   -0.639602 C.3       1 <1>        -0.014361 
      7 C          -1.948229   -0.535788   -0.477306 C.3       1 <1>         0.066960 
      8 C           2.123857    1.345984    0.511147 C.3       1 <1>        -0.045743 
      9 C           1.948105   -2.546884    1.478414 C.3       1 <1>        -0.059279 
     10 C           0.972212   -0.525749    2.802460 C.3       1 <1>        -0.059279 
     11 C          -1.989262    1.733072   -1.277859 C.3       1 <1>        -0.043571 
     12 C          -2.901561    0.672746   -0.614939 C.3       1 <1>        -0.023425 
     13 C           1.913081    2.000630   -0.883216 C.3       1 <1>        -0.031446 
     14 C           0.643044    1.477200   -1.526353 C.2       1 <1>        -0.073151 
     15 C          -2.535882   -1.660281    0.417966 C.3       1 <1>        -0.035789 
     16 C           0.656620    1.007590   -2.783473 C.2       1 <1>        -0.099174 
     17 H           0.658621   -1.513128   -0.717402 H         1 <1>         0.031262 
     18 H           2.808328   -0.663193   -0.237597 H         1 <1>         0.030906 
     19 H          -0.947414    0.353623    1.171661 H         1 <1>         0.033705 
     20 H          -0.478016    2.314716    0.079083 H         1 <1>         0.034919 
     21 H           3.136783    1.577945    0.876456 H         1 <1>         0.027121 
     22 H           1.428053    1.779427    1.236174 H         1 <1>         0.027121 
     23 H           2.890732   -2.516829    2.044797 H         1 <1>         0.023516 
     24 H           1.244601   -3.211246    2.001600 H         1 <1>         0.023516 
     25 H           2.154688   -2.972813    0.485901 H         1 <1>         0.023516 
     26 H           0.589374    0.500085    2.840805 H         1 <1>         0.023516 
     27 H           0.208719   -1.178005    3.252121 H         1 <1>         0.023516 
     28 H           1.872437   -0.562869    3.434434 H         1 <1>         0.023516 
     29 H          -2.383890    2.749771   -1.103751 H         1 <1>         0.027196 
     30 H          -1.991567    1.575351   -2.365410 H         1 <1>         0.027196 
     31 H          -3.793364    0.442061   -1.219951 H         1 <1>         0.029301 
     32 H          -3.230082    1.018676    0.379241 H         1 <1>         0.029301 
     33 H           2.794106    1.771826   -1.505803 H         1 <1>         0.031008 
     34 H           1.845868    3.095160   -0.779678 H         1 <1>         0.031008 
     35 H          -2.795964   -1.283606    1.418634 H         1 <1>         0.025730 
     36 H          -1.803066   -2.473630    0.529423 H         1 <1>         0.025730 
     37 H          -3.444627   -2.065316   -0.051853 H         1 <1>         0.025730 
     38 H          -1.259721   -1.818488   -1.894208 H         1 <1>         0.210159 
     39 H           1.568614    1.029257   -3.378238 H         1 <1>         0.053449 
     40 H          -0.204951    0.575053   -3.284376 H         1 <1>         0.053449 
@<TRIPOS>BOND
     1    7    1 1    
     2    1   38 1    
     3    2    3 1    
     4    2    4 1    
     5    5    2 1    
     6    2   17 1    
     7    4    3 1    
     8    3    9 1    
     9    3   10 1    
    10    4    8 1    
    11    4   18 1    
    12    5    6 1    
    13    5    7 1    
    14    5   19 1    
    15    6   11 1    
    16    6   14 1    
    17    6   20 1    
    18    7   12 1    
    19    7   15 1    
    20    8   13 1    
    21    8   21 1    
    22    8   22 1    
    23    9   23 1    
    24    9   24 1    
    25    9   25 1    
    26   10   26 1    
    27   10   27 1    
    28   10   28 1    
    29   11   12 1    
    30   11   29 1    
    31   11   30 1    
    32   12   31 1    
    33   12   32 1    
    34   13   14 1    
    35   13   33 1    
    36   13   34 1    
    37   14   16 2    
    38   15   35 1    
    39   15   36 1    
    40   15   37 1    
    41   16   39 1    
    42   16   40 1    
@<TRIPOS>SUBSTRUCTURE
     1 ****        2 TEMP              0 ****  ****    0 ROOT 
@<TRIPOS>NORMAL
@<TRIPOS>FF_PBC
FORCE_FIELD_SETUP_FEATURE Force Field Setup information
v1.0  0 0.000000 0.000000 0.000000 0.000000 0.000000 0.000000 NONE 0 0 0 0 1 0 0 0 0 0 0 0 0
