@<TRIPOS>MOLECULE
MOL004818
   70    72     1     1     0
SMALL
GASTEIGER


@<TRIPOS>ATOM
      1 C          -2.833592   -0.283497   -0.155263 C.ar      1 <1>         0.084447 
      2 C          -2.396426    1.039209    0.365461 C.ar      1 <1>         0.016854 
      3 C          -1.114571    1.167689    0.932196 C.ar      1 <1>         0.091813 
      4 C          -0.183981    0.013383    0.906834 C.ar      1 <1>         0.083073 
      5 C          -0.584348   -1.211726    0.373568 C.ar      1 <1>         0.101538 
      6 C          -1.975279   -1.406108   -0.111300 C.ar      1 <1>         0.017599 
      7 C           1.241349    0.076110    1.386635 C.2       1 <1>         0.200672 
      8 C           2.172560   -0.848062    0.734760 C.2       1 <1>         0.055132 
      9 C           1.649609   -1.974149    0.212719 C.2       1 <1>         0.058349 
     10 O           0.338329   -2.243171    0.264856 O.3       1 <1>        -0.314984 
     11 O           1.605723    0.842275    2.270848 O.2       1 <1>        -0.286388 
     12 C           3.670095   -0.610733    0.618266 C.ar      1 <1>         0.018440 
     13 C           4.521036   -1.826009    0.738030 C.ar      1 <1>        -0.048913 
     14 C           5.895527   -1.785922    0.536121 C.ar      1 <1>        -0.030620 
     15 C           6.548155   -0.496817    0.225271 C.ar      1 <1>         0.082188 
     16 C           5.785712    0.674776    0.167448 C.ar      1 <1>         0.034711 
     17 C           4.312623    0.640812    0.409597 C.ar      1 <1>         0.093929 
     18 O          -0.692673    2.371122    1.488170 O.3       1 <1>        -0.358673 
     19 O           7.922045   -0.452488   -0.002936 O.3       1 <1>        -0.359161 
     20 O          -4.115931   -0.403741   -0.693782 O.3       1 <1>        -0.359103 
     21 C          -3.325214    2.265023    0.275554 C.3       1 <1>        -0.004330 
     22 C          -4.790558    2.043134    0.552727 C.2       1 <1>        -0.080815 
     23 C          -2.520950   -2.780091   -0.561138 C.3       1 <1>        -0.004306 
     24 C          -1.555827   -3.926530   -0.793052 C.2       1 <1>        -0.080815 
     25 C          -1.732364   -5.216712   -0.447253 C.2       1 <1>        -0.079306 
     26 C          -5.747302    2.952006    0.289635 C.2       1 <1>        -0.079306 
     27 C          -0.637522   -6.240594   -0.672653 C.3       1 <1>        -0.044040 
     28 C          -2.995585   -5.783879    0.169005 C.3       1 <1>        -0.044040 
     29 C          -7.206606    2.648970    0.555787 C.3       1 <1>        -0.044040 
     30 C          -5.474287    4.335903   -0.262936 C.3       1 <1>        -0.044040 
     31 O           3.637656    1.868867    0.424858 O.3       1 <1>        -0.340746 
     32 C           2.489441    2.344372   -0.304195 C.3       1 <1>         0.059673 
     33 C           2.754315    3.860425   -0.512428 C.3       1 <1>        -0.038454 
     34 C           2.205910    1.610663   -1.641233 C.3       1 <1>        -0.038454 
     35 C           6.540952    1.944001   -0.160520 C.2       1 <1>        -0.056741 
     36 C           6.255478    3.150116    0.353945 C.2       1 <1>        -0.097976 
     37 H           2.215502   -2.752625   -0.293567 H         1 <1>         0.089750 
     38 H           4.088823   -2.783897    1.000880 H         1 <1>         0.062524 
     39 H           6.491996   -2.689980    0.609059 H         1 <1>         0.064359 
     40 H          -0.672506    3.069087    0.843889 H         1 <1>         0.217354 
     41 H           8.399586   -0.925406    0.666622 H         1 <1>         0.217339 
     42 H          -4.637721   -1.082910   -0.279569 H         1 <1>         0.217339 
     43 H          -3.196748    2.640818   -0.750584 H         1 <1>         0.035721 
     44 H          -3.018714    3.038943    0.988299 H         1 <1>         0.035721 
     45 H          -5.073234    1.091962    0.999383 H         1 <1>         0.057473 
     46 H          -3.077909   -2.657798   -1.501234 H         1 <1>         0.035722 
     47 H          -3.228655   -3.035942    0.237029 H         1 <1>         0.035722 
     48 H          -0.633476   -3.674630   -1.314389 H         1 <1>         0.057473 
     49 H           0.339306   -5.783376   -0.888581 H         1 <1>         0.027427 
     50 H          -0.910070   -6.895672   -1.514294 H         1 <1>         0.027427 
     51 H          -0.520768   -6.860880    0.229557 H         1 <1>         0.027427 
     52 H          -3.892571   -5.176184   -0.005396 H         1 <1>         0.027427 
     53 H          -3.203267   -6.774594   -0.265426 H         1 <1>         0.027427 
     54 H          -2.851713   -5.908623    1.251318 H         1 <1>         0.027427 
     55 H          -7.394952    1.585580    0.765103 H         1 <1>         0.027427 
     56 H          -7.546946    3.240122    1.419319 H         1 <1>         0.027427 
     57 H          -7.807630    2.931684   -0.320352 H         1 <1>         0.027427 
     58 H          -4.412799    4.610353   -0.326607 H         1 <1>         0.027427 
     59 H          -5.908702    4.421759   -1.268149 H         1 <1>         0.027427 
     60 H          -5.959526    5.078803    0.387150 H         1 <1>         0.027427 
     61 H           1.596570    2.333810    0.331207 H         1 <1>         0.059546 
     62 H           1.880747    4.354648   -0.963881 H         1 <1>         0.025456 
     63 H           2.961546    4.349935    0.454415 H         1 <1>         0.025456 
     64 H           3.623345    4.012587   -1.167399 H         1 <1>         0.025456 
     65 H           1.535720    0.755485   -1.465616 H         1 <1>         0.025456 
     66 H           3.138616    1.243976   -2.093154 H         1 <1>         0.025456 
     67 H           1.712123    2.287342   -2.356086 H         1 <1>         0.025456 
     68 H           7.386395    1.874195   -0.848721 H         1 <1>         0.061925 
     69 H           6.846819    4.018709    0.067754 H         1 <1>         0.053501 
     70 H           5.455813    3.308607    1.070280 H         1 <1>         0.053501 
@<TRIPOS>BOND
     1    1    2 1    
     2    1    6 2    
     3    1   20 1    
     4    2    3 2    
     5    2   21 1    
     6    3    4 1    
     7    3   18 1    
     8    4    5 2    
     9    4    7 1    
    10    5    6 1    
    11    5   10 1    
    12    6   23 1    
    13    7    8 1    
    14    7   11 2    
    15    8    9 2    
    16    8   12 1    
    17    9   10 1    
    18    9   37 1    
    19   12   13 1    
    20   12   17 2    
    21   13   14 2    
    22   13   38 1    
    23   14   15 1    
    24   14   39 1    
    25   15   16 2    
    26   15   19 1    
    27   16   17 1    
    28   16   35 1    
    29   17   31 1    
    30   18   40 1    
    31   19   41 1    
    32   20   42 1    
    33   21   22 1    
    34   21   43 1    
    35   21   44 1    
    36   22   26 2    
    37   22   45 1    
    38   23   24 1    
    39   23   46 1    
    40   23   47 1    
    41   24   25 2    
    42   24   48 1    
    43   25   27 1    
    44   25   28 1    
    45   26   29 1    
    46   26   30 1    
    47   27   49 1    
    48   27   50 1    
    49   27   51 1    
    50   28   52 1    
    51   28   53 1    
    52   28   54 1    
    53   29   55 1    
    54   29   56 1    
    55   29   57 1    
    56   30   58 1    
    57   30   59 1    
    58   30   60 1    
    59   31   32 1    
    60   32   33 1    
    61   32   34 1    
    62   32   61 1    
    63   33   62 1    
    64   33   63 1    
    65   33   64 1    
    66   34   65 1    
    67   34   66 1    
    68   34   67 1    
    69   35   36 2    
    70   35   68 1    
    71   36   69 1    
    72   36   70 1    
@<TRIPOS>SUBSTRUCTURE
     1 ****        1 TEMP              0 ****  ****    0 ROOT 
@<TRIPOS>NORMAL
@<TRIPOS>FF_PBC
FORCE_FIELD_SETUP_FEATURE Force Field Setup information
v1.0  0 0.000000 0.000000 0.000000 0.000000 0.000000 0.000000 NONE 0 0 0 0 1 0 0 0 0 0 0 0 0
