@<TRIPOS>MOLECULE
MOL000774
   29    28     1     1     0
SMALL
GASTEIGER


@<TRIPOS>ATOM
      1 C           0.373953    1.111581    1.551439 C.3       1 <1>        -0.037203 
      2 C          -0.954335    0.294652    1.626255 C.3       1 <1>        -0.046636 
      3 C           0.369176    2.195017    0.432253 C.3       1 <1>         0.005367 
      4 C           0.632209    1.787320    2.929471 C.3       1 <1>        -0.062029 
      5 C          -1.336595   -0.470096    0.327380 C.3       1 <1>        -0.034273 
      6 C           0.526313    1.628210   -0.955305 C.2       1 <1>         0.120561 
      7 C          -0.236211   -1.397934   -0.137537 C.2       1 <1>        -0.085277 
      8 O          -0.217822    1.983919   -1.854897 O.2       1 <1>        -0.301026 
      9 C           0.008129   -1.749582   -1.411223 C.2       1 <1>        -0.079617 
     10 C           1.177914   -2.643818   -1.764005 C.3       1 <1>        -0.044050 
     11 C          -0.835164   -1.302786   -2.586354 C.3       1 <1>        -0.044050 
     12 H           1.219297    0.426445    1.368633 H         1 <1>         0.030213 
     13 H          -0.863771   -0.446381    2.438325 H         1 <1>         0.027089 
     14 H          -1.782407    0.973762    1.889530 H         1 <1>         0.027089 
     15 H          -0.555073    2.790434    0.500046 H         1 <1>         0.034132 
     16 H           1.221263    2.879437    0.567150 H         1 <1>         0.034132 
     17 H           1.598047    2.316608    2.932382 H         1 <1>         0.023252 
     18 H           0.657211    1.035567    3.733904 H         1 <1>         0.023252 
     19 H          -0.163616    2.513928    3.155057 H         1 <1>         0.023252 
     20 H          -2.226429   -1.088446    0.528887 H         1 <1>         0.030749 
     21 H          -1.615651    0.270509   -0.434475 H         1 <1>         0.030749 
     22 H           1.310756    0.904710   -1.176882 H         1 <1>         0.102617 
     23 H           0.400288   -1.810441    0.645788 H         1 <1>         0.057145 
     24 H           1.828235   -2.867550   -0.904851 H         1 <1>         0.027427 
     25 H           1.791268   -2.151247   -2.533573 H         1 <1>         0.027427 
     26 H           0.803630   -3.596998   -2.166821 H         1 <1>         0.027427 
     27 H          -1.866777   -1.047934   -2.306969 H         1 <1>         0.027427 
     28 H          -0.364712   -0.429698   -3.061503 H         1 <1>         0.027427 
     29 H          -0.899225   -2.109189   -3.332406 H         1 <1>         0.027427 
@<TRIPOS>BOND
     1    1    2 1    
     2    1    3 1    
     3    1    4 1    
     4    1   12 1    
     5    2    5 1    
     6    2   13 1    
     7    2   14 1    
     8    3    6 1    
     9    3   15 1    
    10    3   16 1    
    11    4   17 1    
    12    4   18 1    
    13    4   19 1    
    14    5    7 1    
    15    5   20 1    
    16    5   21 1    
    17    6    8 2    
    18    6   22 1    
    19    7    9 2    
    20    7   23 1    
    21    9   10 1    
    22    9   11 1    
    23   10   24 1    
    24   10   25 1    
    25   10   26 1    
    26   11   27 1    
    27   11   28 1    
    28   11   29 1    
@<TRIPOS>SUBSTRUCTURE
     1 ****        1 TEMP              0 ****  ****    0 ROOT 
@<TRIPOS>NORMAL
@<TRIPOS>FF_PBC
FORCE_FIELD_SETUP_FEATURE Force Field Setup information
v1.0  0 0.000000 0.000000 0.000000 0.000000 0.000000 0.000000 NONE 0 0 0 0 1 0 0 0 0 0 0 0 0
