@<TRIPOS>MOLECULE
MOL001606
   39    40     1     1     0
SMALL
GASTEIGER


@<TRIPOS>ATOM
      1 C           0.501738    0.309094   -0.755233 C.3       1 <1>        -0.007955 
      2 C           0.462751   -1.212042   -0.671058 C.2       1 <1>        -0.067256 
      3 C          -0.341924    0.785716    0.475987 C.3       1 <1>        -0.037143 
      4 C           1.977943    0.856689   -0.666108 C.3       1 <1>        -0.034486 
      5 C          -0.154139    0.856627   -2.066540 C.3       1 <1>        -0.055579 
      6 C          -0.906128   -1.850731   -0.787650 C.3       1 <1>        -0.030678 
      7 C           1.541222   -1.980804   -0.450001 C.2       1 <1>        -0.084224 
      8 C          -1.755412    0.135003    0.587537 C.3       1 <1>        -0.019334 
      9 C           2.842813    0.011171    0.311324 C.3       1 <1>        -0.046226 
     10 C           2.722550    0.955969   -2.036243 C.3       1 <1>        -0.061619 
     11 C          -1.682926   -1.413991    0.481662 C.3       1 <1>        -0.042794 
     12 C           2.925098   -1.451274   -0.184840 C.3       1 <1>        -0.034222 
     13 C          -2.457477    0.578203    1.862335 C.2       1 <1>        -0.076573 
     14 C          -3.692099    1.437571    1.688990 C.3       1 <1>        -0.043777 
     15 C          -2.017966    0.238270    3.082980 C.2       1 <1>        -0.099446 
     16 H          -0.459795    1.881040    0.446748 H         1 <1>         0.027936 
     17 H           0.194002    0.539520    1.401108 H         1 <1>         0.027936 
     18 H           1.945438    1.886525   -0.269302 H         1 <1>         0.030653 
     19 H           0.295866    0.386093   -2.952338 H         1 <1>         0.023820 
     20 H          -1.231818    0.688379   -2.154653 H         1 <1>         0.023820 
     21 H          -0.012284    1.946456   -2.126007 H         1 <1>         0.023820 
     22 H          -0.858940   -2.951914   -0.800846 H         1 <1>         0.031034 
     23 H          -1.430099   -1.552805   -1.705841 H         1 <1>         0.031034 
     24 H           1.445548   -3.067460   -0.433341 H         1 <1>         0.057180 
     25 H          -2.377554    0.471697   -0.254107 H         1 <1>         0.034578 
     26 H           3.860845    0.426132    0.397948 H         1 <1>         0.027105 
     27 H           2.413080    0.019114    1.324054 H         1 <1>         0.027105 
     28 H           3.789028    1.184045   -1.885437 H         1 <1>         0.023268 
     29 H           2.319342    1.765340   -2.663191 H         1 <1>         0.023268 
     30 H           2.651790    0.016092   -2.602440 H         1 <1>         0.023268 
     31 H          -2.702933   -1.833444    0.464292 H         1 <1>         0.027400 
     32 H          -1.160112   -1.831907    1.356300 H         1 <1>         0.027400 
     33 H           3.541520   -1.553338   -1.090459 H         1 <1>         0.030749 
     34 H           3.399391   -2.057159    0.605458 H         1 <1>         0.030749 
     35 H          -4.137909    1.742794    2.647859 H         1 <1>         0.027436 
     36 H          -3.428029    2.348495    1.130531 H         1 <1>         0.027436 
     37 H          -4.452130    0.878967    1.121970 H         1 <1>         0.027436 
     38 H          -2.535046    0.564398    3.984711 H         1 <1>         0.053440 
     39 H          -1.130775   -0.372694    3.238623 H         1 <1>         0.053440 
@<TRIPOS>BOND
     1    1    2 1    
     2    1    3 1    
     3    1    4 1    
     4    1    5 1    
     5    2    6 1    
     6    2    7 2    
     7    3    8 1    
     8    3   16 1    
     9    3   17 1    
    10    4    9 1    
    11    4   10 1    
    12    4   18 1    
    13    5   19 1    
    14    5   20 1    
    15    5   21 1    
    16    6   11 1    
    17    6   22 1    
    18    6   23 1    
    19    7   12 1    
    20    7   24 1    
    21    8   11 1    
    22    8   13 1    
    23    8   25 1    
    24    9   12 1    
    25    9   26 1    
    26    9   27 1    
    27   10   28 1    
    28   10   29 1    
    29   10   30 1    
    30   11   31 1    
    31   11   32 1    
    32   12   33 1    
    33   12   34 1    
    34   13   14 1    
    35   13   15 2    
    36   14   35 1    
    37   14   36 1    
    38   14   37 1    
    39   15   38 1    
    40   15   39 1    
@<TRIPOS>SUBSTRUCTURE
     1 ****        1 TEMP              0 ****  ****    0 ROOT 
@<TRIPOS>NORMAL
@<TRIPOS>FF_PBC
FORCE_FIELD_SETUP_FEATURE Force Field Setup information
v1.0  0 0.000000 0.000000 0.000000 0.000000 0.000000 0.000000 NONE 0 0 0 0 1 0 0 0 0 0 0 0 0
