@<TRIPOS>MOLECULE
MOL001619
   59    58     1     1     0
SMALL
GASTEIGER


@<TRIPOS>ATOM
      1 C           0.053614   -0.476688    0.000123 C.3       1 <1>        -0.053057 
      2 C          -1.319391    0.250096   -0.000114 C.3       1 <1>        -0.053057 
      3 C           1.230950    0.536808   -0.000118 C.3       1 <1>        -0.053057 
      4 C          -2.496975   -0.763258    0.000129 C.3       1 <1>        -0.053057 
      5 C           2.604079   -0.189812    0.000125 C.3       1 <1>        -0.053057 
      6 C          -3.870059   -0.036630   -0.000099 C.3       1 <1>        -0.053057 
      7 C           3.781566    0.823548   -0.000118 C.3       1 <1>        -0.053057 
      8 C          -5.048291   -1.049146    0.000133 C.3       1 <1>        -0.053057 
      9 C           5.155249    0.097933    0.000139 C.3       1 <1>        -0.053057 
     10 C          -6.420545   -0.320847   -0.000110 C.3       1 <1>        -0.053057 
     11 C           6.331562    1.112743   -0.000109 C.3       1 <1>        -0.053057 
     12 C          -7.600001   -1.331988    0.000110 C.3       1 <1>        -0.053065 
     13 C           7.706045    0.388705    0.000131 C.3       1 <1>        -0.053065 
     14 C          -8.971389   -0.602372   -0.000119 C.3       1 <1>        -0.053306 
     15 C           8.881176    1.404607   -0.000125 C.3       1 <1>        -0.053306 
     16 C         -10.150859   -1.612780    0.000115 C.3       1 <1>        -0.055911 
     17 C          10.255563    0.681322    0.000126 C.3       1 <1>        -0.055911 
     18 C         -11.518586   -0.881503   -0.000113 C.3       1 <1>        -0.065276 
     19 C          11.426789    1.698042   -0.000116 C.3       1 <1>        -0.065276 
     20 H           0.125748   -1.118573    0.893592 H         1 <1>         0.026528 
     21 H           0.125801   -1.119047   -0.893001 H         1 <1>         0.026528 
     22 H          -1.391326    0.891972   -0.893553 H         1 <1>         0.026528 
     23 H          -1.391382    0.892439    0.892973 H         1 <1>         0.026528 
     24 H           1.158561    1.178606   -0.893542 H         1 <1>         0.026528 
     25 H           1.158508    1.179084    0.892953 H         1 <1>         0.026528 
     26 H          -2.424679   -1.405104    0.893595 H         1 <1>         0.026528 
     27 H          -2.424625   -1.405577   -0.893026 H         1 <1>         0.026528 
     28 H           2.676144   -0.831669    0.893601 H         1 <1>         0.026528 
     29 H           2.676196   -0.832152   -0.893005 H         1 <1>         0.026528 
     30 H          -3.941857    0.605208   -0.893547 H         1 <1>         0.026528 
     31 H          -3.941908    0.605658    0.892966 H         1 <1>         0.026528 
     32 H           3.709096    1.465310   -0.893573 H         1 <1>         0.026528 
     33 H           3.709043    1.465791    0.892962 H         1 <1>         0.026528 
     34 H          -4.976912   -1.691089    0.893539 H         1 <1>         0.026528 
     35 H          -4.976861   -1.691560   -0.892982 H         1 <1>         0.026528 
     36 H           5.228166   -0.543842    0.893569 H         1 <1>         0.026528 
     37 H           5.228224   -0.544341   -0.892981 H         1 <1>         0.026528 
     38 H          -6.491959    0.321125   -0.893570 H         1 <1>         0.026528 
     39 H          -6.492009    0.321582    0.893000 H         1 <1>         0.026528 
     40 H           6.258612    1.754519   -0.893594 H         1 <1>         0.026528 
     41 H           6.258555    1.755001    0.892967 H         1 <1>         0.026528 
     42 H          -7.529493   -1.973957    0.893651 H         1 <1>         0.026528 
     43 H          -7.529443   -1.974408   -0.893081 H         1 <1>         0.026528 
     44 H           7.779834   -0.252856    0.893657 H         1 <1>         0.026528 
     45 H           7.779892   -0.253351   -0.893050 H         1 <1>         0.026528 
     46 H          -9.043025    0.039485   -0.893613 H         1 <1>         0.026520 
     47 H          -9.043076    0.039945    0.893056 H         1 <1>         0.026520 
     48 H           8.808535    2.046339   -0.893635 H         1 <1>         0.026520 
     49 H           8.808475    2.046833    0.893030 H         1 <1>         0.026520 
     50 H         -10.086472   -2.255819    0.893720 H         1 <1>         0.026265 
     51 H         -10.086421   -2.256280   -0.893151 H         1 <1>         0.026265 
     52 H          10.335577    0.040045    0.893750 H         1 <1>         0.026265 
     53 H          10.335637    0.039552   -0.893134 H         1 <1>         0.026265 
     54 H         -12.340852   -1.614570    0.000052 H         1 <1>         0.022978 
     55 H         -11.615181   -0.247439   -0.895301 H         1 <1>         0.022978 
     56 H         -11.615229   -0.246980    0.894745 H         1 <1>         0.022978 
     57 H          12.391307    1.165841    0.000068 H         1 <1>         0.022978 
     58 H          11.380185    2.337698   -0.895323 H         1 <1>         0.022978 
     59 H          11.380117    2.338198    0.894729 H         1 <1>         0.022978 
@<TRIPOS>BOND
     1    1    2 1    
     2    1    3 1    
     3    1   20 1    
     4    1   21 1    
     5    2    4 1    
     6    2   22 1    
     7    2   23 1    
     8    3    5 1    
     9    3   24 1    
    10    3   25 1    
    11    4    6 1    
    12    4   26 1    
    13    4   27 1    
    14    5    7 1    
    15    5   28 1    
    16    5   29 1    
    17    6    8 1    
    18    6   30 1    
    19    6   31 1    
    20    7    9 1    
    21    7   32 1    
    22    7   33 1    
    23    8   10 1    
    24    8   34 1    
    25    8   35 1    
    26    9   11 1    
    27    9   36 1    
    28    9   37 1    
    29   10   12 1    
    30   10   38 1    
    31   10   39 1    
    32   11   13 1    
    33   11   40 1    
    34   11   41 1    
    35   12   14 1    
    36   12   42 1    
    37   12   43 1    
    38   13   15 1    
    39   13   44 1    
    40   13   45 1    
    41   14   16 1    
    42   14   46 1    
    43   14   47 1    
    44   15   17 1    
    45   15   48 1    
    46   15   49 1    
    47   16   18 1    
    48   16   50 1    
    49   16   51 1    
    50   17   19 1    
    51   17   52 1    
    52   17   53 1    
    53   18   54 1    
    54   18   55 1    
    55   18   56 1    
    56   19   57 1    
    57   19   58 1    
    58   19   59 1    
@<TRIPOS>SUBSTRUCTURE
     1 ****        1 TEMP              0 ****  ****    0 ROOT 
@<TRIPOS>NORMAL
@<TRIPOS>FF_PBC
FORCE_FIELD_SETUP_FEATURE Force Field Setup information
v1.0  0 0.000000 0.000000 0.000000 0.000000 0.000000 0.000000 NONE 0 0 0 0 1 0 0 0 0 0 0 0 0
