@<TRIPOS>MOLECULE
MOL003509
   30    29     1     1     0
SMALL
GASTEIGER


@<TRIPOS>ATOM
      1 C          -2.383752    4.284151   -0.000102 C.3       1 <1>         0.044206 
      2 C          -1.057867    3.482206    0.000122 C.3       1 <1>        -0.029718 
      3 C          -1.314072    1.950131   -0.000094 C.3       1 <1>        -0.050987 
      4 C           0.019467    1.153464    0.000132 C.3       1 <1>        -0.052986 
      5 C          -0.236412   -0.378884   -0.000095 C.3       1 <1>        -0.053056 
      6 C           1.096737   -1.176310    0.000132 C.3       1 <1>        -0.053065 
      7 C           0.840762   -2.708550   -0.000095 C.3       1 <1>        -0.053306 
      8 C           2.174128   -3.505104    0.000134 C.3       1 <1>        -0.055911 
      9 C           1.918012   -5.034793   -0.000092 C.3       1 <1>        -0.065276 
     10 O          -2.064871    5.687277    0.000126 O.3       1 <1>        -0.395007 
     11 H          -2.972120    4.027134   -0.897863 H         1 <1>         0.055696 
     12 H          -2.972534    4.026938    0.897323 H         1 <1>         0.055696 
     13 H          -0.475615    3.762929    0.893100 H         1 <1>         0.028724 
     14 H          -0.475206    3.763109   -0.892542 H         1 <1>         0.028724 
     15 H          -1.900163    1.679158   -0.893721 H         1 <1>         0.026599 
     16 H          -1.900567    1.678979    0.893203 H         1 <1>         0.026599 
     17 H           0.605605    1.424995    0.893589 H         1 <1>         0.026529 
     18 H           0.606017    1.425182   -0.893004 H         1 <1>         0.026529 
     19 H          -0.822560   -0.650176   -0.893563 H         1 <1>         0.026528 
     20 H          -0.822973   -0.650364    0.893048 H         1 <1>         0.026528 
     21 H           1.683040   -0.905373    0.893622 H         1 <1>         0.026528 
     22 H           1.683453   -0.905184   -0.893020 H         1 <1>         0.026528 
     23 H           0.255048   -2.980721   -0.893594 H         1 <1>         0.026520 
     24 H           0.254631   -2.980913    0.893081 H         1 <1>         0.026520 
     25 H           2.763095   -3.238962    0.893776 H         1 <1>         0.026265 
     26 H           2.763511   -3.238767   -0.893169 H         1 <1>         0.026265 
     27 H           2.875511   -5.579445    0.000073 H         1 <1>         0.022978 
     28 H           1.348216   -5.329062   -0.895264 H         1 <1>         0.022978 
     29 H           1.347794   -5.329257    0.894748 H         1 <1>         0.022978 
     30 H          -2.836317    6.246515    0.000008 H         1 <1>         0.209395 
@<TRIPOS>BOND
     1    1    2 1    
     2    1   10 1    
     3    1   11 1    
     4    1   12 1    
     5    2    3 1    
     6    2   13 1    
     7    2   14 1    
     8    3    4 1    
     9    3   15 1    
    10    3   16 1    
    11    4    5 1    
    12    4   17 1    
    13    4   18 1    
    14    5    6 1    
    15    5   19 1    
    16    5   20 1    
    17    6    7 1    
    18    6   21 1    
    19    6   22 1    
    20    7    8 1    
    21    7   23 1    
    22    7   24 1    
    23    8    9 1    
    24    8   25 1    
    25    8   26 1    
    26    9   27 1    
    27    9   28 1    
    28    9   29 1    
    29   10   30 1    
@<TRIPOS>SUBSTRUCTURE
     1 ****        1 TEMP              0 ****  ****    0 ROOT 
@<TRIPOS>NORMAL
@<TRIPOS>FF_PBC
FORCE_FIELD_SETUP_FEATURE Force Field Setup information
v1.0  0 0.000000 0.000000 0.000000 0.000000 0.000000 0.000000 NONE 0 0 0 0 1 0 0 0 0 0 0 0 0
