@<TRIPOS>MOLECULE
MOL004723
   26    26     1     1     0
SMALL
GASTEIGER


@<TRIPOS>ATOM
      1 C           0.426614    0.145777    0.108019 C.2       1 <1>        -0.070283 
      2 C          -0.047929   -1.147508    0.741085 C.3       1 <1>        -0.027801 
      3 C           1.933140    0.284533   -0.075019 C.3       1 <1>        -0.025545 
      4 C          -1.412530   -0.978842    1.449638 C.3       1 <1>        -0.028009 
      5 C          -1.954814    0.955655   -0.100114 C.3       1 <1>        -0.013515 
      6 C          -0.458498    1.085275   -0.264413 C.2       1 <1>        -0.080524 
      7 C          -2.357775   -0.394773    0.434999 C.2       1 <1>        -0.072583 
      8 C           2.417493   -0.699167   -1.174658 C.3       1 <1>        -0.058954 
      9 C           2.444758    1.718054   -0.394908 C.3       1 <1>        -0.058954 
     10 C          -3.469544   -1.026287    0.033948 C.2       1 <1>        -0.099145 
     11 H           0.674059   -1.516036    1.487474 H         1 <1>         0.031311 
     12 H          -0.144000   -1.907363   -0.050718 H         1 <1>         0.031311 
     13 H           2.414004    0.006491    0.879050 H         1 <1>         0.034025 
     14 H          -1.758587   -1.948865    1.842625 H         1 <1>         0.031304 
     15 H          -1.316290   -0.278661    2.295084 H         1 <1>         0.031304 
     16 H          -2.436003    1.151968   -1.071347 H         1 <1>         0.035230 
     17 H          -2.291296    1.721139    0.615897 H         1 <1>         0.035230 
     18 H          -0.139817    2.020537   -0.720661 H         1 <1>         0.057487 
     19 H           3.505740   -0.614359   -1.319709 H         1 <1>         0.023536 
     20 H           2.193119   -1.741242   -0.901280 H         1 <1>         0.023536 
     21 H           1.916654   -0.470470   -2.128052 H         1 <1>         0.023536 
     22 H           3.545907    1.743734   -0.373320 H         1 <1>         0.023536 
     23 H           2.074052    2.434164    0.355298 H         1 <1>         0.023536 
     24 H           2.122712    2.041135   -1.396594 H         1 <1>         0.023536 
     25 H          -3.742887   -2.004070    0.429100 H         1 <1>         0.053450 
     26 H          -4.138582   -0.580922   -0.701622 H         1 <1>         0.053450 
@<TRIPOS>BOND
     1    1    2 1    
     2    1    3 1    
     3    1    6 2    
     4    2    4 1    
     5    2   11 1    
     6    2   12 1    
     7    3    8 1    
     8    3    9 1    
     9    3   13 1    
    10    4    7 1    
    11    4   14 1    
    12    4   15 1    
    13    6    5 1    
    14    5    7 1    
    15    5   16 1    
    16    5   17 1    
    17    6   18 1    
    18    7   10 2    
    19    8   19 1    
    20    8   20 1    
    21    8   21 1    
    22    9   22 1    
    23    9   23 1    
    24    9   24 1    
    25   10   25 1    
    26   10   26 1    
@<TRIPOS>SUBSTRUCTURE
     1 ****        1 TEMP              0 ****  ****    0 ROOT 
@<TRIPOS>NORMAL
@<TRIPOS>FF_PBC
FORCE_FIELD_SETUP_FEATURE Force Field Setup information
v1.0  0 0.000000 0.000000 0.000000 0.000000 0.000000 0.000000 NONE 0 0 0 0 1 0 0 0 0 0 0 0 0
