@<TRIPOS>MOLECULE
MOL000121
   31    30     1     1     0
SMALL
GASTEIGER


@<TRIPOS>ATOM
      1 C          -0.869066   -0.367285   -0.000137 C.3       1 <1>        -0.053046 
      2 C           0.497552    0.371472    0.000082 C.3       1 <1>        -0.053057 
      3 C          -2.056298    0.634647    0.000089 C.3       1 <1>        -0.052682 
      4 C           1.683520   -0.631984   -0.000134 C.3       1 <1>        -0.053065 
      5 C          -3.421287   -0.106919   -0.000113 C.3       1 <1>        -0.046641 
      6 C           3.050855    0.105314    0.000090 C.3       1 <1>        -0.053306 
      7 C          -4.609832    0.892002    0.000160 C.3       1 <1>         0.002777 
      8 C           4.235127   -0.899639   -0.000122 C.3       1 <1>        -0.055911 
      9 C          -5.941883    0.187424   -0.000028 C.2       1 <1>         0.120308 
     10 C           5.600683   -0.164234    0.000089 C.3       1 <1>        -0.065276 
     11 O          -6.972692    0.840400   -0.000281 O.2       1 <1>        -0.301035 
     12 H          -0.935181   -1.009808   -0.893584 H         1 <1>         0.026529 
     13 H          -0.935222   -1.010254    0.892978 H         1 <1>         0.026529 
     14 H           0.564378    1.013923    0.893548 H         1 <1>         0.026528 
     15 H           0.564428    1.014364   -0.893058 H         1 <1>         0.026528 
     16 H          -1.990556    1.277227    0.893578 H         1 <1>         0.026539 
     17 H          -1.990529    1.277663   -0.893092 H         1 <1>         0.026539 
     18 H           1.616904   -1.274482   -0.893562 H         1 <1>         0.026528 
     19 H           1.616854   -1.274922    0.892983 H         1 <1>         0.026528 
     20 H          -3.488866   -0.748620   -0.894339 H         1 <1>         0.026918 
     21 H          -3.488862   -0.749087    0.893776 H         1 <1>         0.026918 
     22 H           3.119283    0.747531    0.893595 H         1 <1>         0.026520 
     23 H           3.119331    0.747969   -0.893096 H         1 <1>         0.026520 
     24 H          -4.558444    1.533891    0.893954 H         1 <1>         0.033871 
     25 H          -4.558431    1.534365   -0.893291 H         1 <1>         0.033871 
     26 H           4.173128   -1.542949   -0.893767 H         1 <1>         0.026265 
     27 H           4.173085   -1.543380    0.893196 H         1 <1>         0.026265 
     28 H          -6.014204   -0.900145    0.000073 H         1 <1>         0.102608 
     29 H           6.424774   -0.895179   -0.000070 H         1 <1>         0.022978 
     30 H           5.695703    0.470029    0.895281 H         1 <1>         0.022978 
     31 H           5.695747    0.470466   -0.894797 H         1 <1>         0.022978 
@<TRIPOS>BOND
     1    1    2 1    
     2    1    3 1    
     3    1   12 1    
     4    1   13 1    
     5    2    4 1    
     6    2   14 1    
     7    2   15 1    
     8    3    5 1    
     9    3   16 1    
    10    3   17 1    
    11    4    6 1    
    12    4   18 1    
    13    4   19 1    
    14    5    7 1    
    15    5   20 1    
    16    5   21 1    
    17    6    8 1    
    18    6   22 1    
    19    6   23 1    
    20    7    9 1    
    21    7   24 1    
    22    7   25 1    
    23    8   10 1    
    24    8   26 1    
    25    8   27 1    
    26    9   11 2    
    27    9   28 1    
    28   10   29 1    
    29   10   30 1    
    30   10   31 1    
@<TRIPOS>SUBSTRUCTURE
     1 ****        1 TEMP              0 ****  ****    0 ROOT 
@<TRIPOS>NORMAL
@<TRIPOS>FF_PBC
FORCE_FIELD_SETUP_FEATURE Force Field Setup information
v1.0  0 0.000000 0.000000 0.000000 0.000000 0.000000 0.000000 NONE 0 0 0 0 1 0 0 0 0 0 0 0 0
