@<TRIPOS>MOLECULE
MOL001895
   37    37     1     1     0
SMALL
GASTEIGER


@<TRIPOS>ATOM
      1 C          -0.351051    1.313110   -0.355680 C.ar      1 <1>        -0.012001 
      2 C           0.161689   -0.022821    0.081612 C.ar      1 <1>         0.079913 
      3 C           0.610412    2.493392   -0.707338 C.3       1 <1>        -0.010237 
      4 C          -1.762316    1.462919   -0.455830 C.ar      1 <1>        -0.055607 
      5 C          -0.717152   -1.151980    0.293087 C.ar      1 <1>        -0.012001 
      6 O           1.524475   -0.183948    0.291555 O.3       1 <1>        -0.359253 
      7 C          -0.126144    3.708602   -1.360204 C.3       1 <1>        -0.055962 
      8 C           1.673487    2.022395   -1.747722 C.3       1 <1>        -0.055962 
      9 C           1.309018    3.033926    0.575082 C.3       1 <1>        -0.055962 
     10 C          -2.675192    0.334921   -0.182816 C.ar      1 <1>        -0.061053 
     11 C          -0.170532   -2.571272    0.646989 C.3       1 <1>        -0.010237 
     12 C          -2.180188   -0.911570    0.161902 C.ar      1 <1>        -0.055607 
     13 C          -1.290083   -3.661630    0.667944 C.3       1 <1>        -0.055962 
     14 C           0.484127   -2.578868    2.060440 C.3       1 <1>        -0.055962 
     15 C           0.860623   -3.025683   -0.431685 C.3       1 <1>        -0.055962 
     16 H          -2.230922    2.393667   -0.741915 H         1 <1>         0.062126 
     17 H           1.747207    0.062573    1.180198 H         1 <1>         0.217337 
     18 H          -0.681712    3.393831   -2.257297 H         1 <1>         0.023805 
     19 H          -0.815564    4.190124   -0.649853 H         1 <1>         0.023805 
     20 H           0.587224    4.485921   -1.675519 H         1 <1>         0.023805 
     21 H           1.166497    1.596130   -2.627065 H         1 <1>         0.023805 
     22 H           2.359720    1.265686   -1.348894 H         1 <1>         0.023805 
     23 H           2.298687    2.863960   -2.083315 H         1 <1>         0.023805 
     24 H           2.020655    2.317030    0.999222 H         1 <1>         0.023805 
     25 H           1.876099    3.951453    0.354556 H         1 <1>         0.023805 
     26 H           0.553298    3.268412    1.340434 H         1 <1>         0.023805 
     27 H          -3.747876    0.488472   -0.259877 H         1 <1>         0.061777 
     28 H          -2.910013   -1.690225    0.336539 H         1 <1>         0.062126 
     29 H          -1.819037   -3.700230   -0.296959 H         1 <1>         0.023805 
     30 H          -2.012190   -3.476539    1.477879 H         1 <1>         0.023805 
     31 H          -0.868255   -4.663061    0.846076 H         1 <1>         0.023805 
     32 H          -0.212059   -2.147000    2.795748 H         1 <1>         0.023805 
     33 H           0.726951   -3.605728    2.374485 H         1 <1>         0.023805 
     34 H           1.421076   -2.011685    2.093421 H         1 <1>         0.023805 
     35 H           0.396680   -2.981853   -1.429082 H         1 <1>         0.023805 
     36 H           1.191811   -4.059476   -0.249021 H         1 <1>         0.023805 
     37 H           1.764642   -2.404397   -0.449398 H         1 <1>         0.023805 
@<TRIPOS>BOND
     1    1    2 1    
     2    1    3 1    
     3    1    4 2    
     4    2    5 2    
     5    2    6 1    
     6    3    7 1    
     7    3    8 1    
     8    3    9 1    
     9    4   10 1    
    10    4   16 1    
    11    5   11 1    
    12    5   12 1    
    13    6   17 1    
    14    7   18 1    
    15    7   19 1    
    16    7   20 1    
    17    8   21 1    
    18    8   22 1    
    19    8   23 1    
    20    9   24 1    
    21    9   25 1    
    22    9   26 1    
    23   10   12 2    
    24   10   27 1    
    25   11   13 1    
    26   11   14 1    
    27   11   15 1    
    28   12   28 1    
    29   13   29 1    
    30   13   30 1    
    31   13   31 1    
    32   14   32 1    
    33   14   33 1    
    34   14   34 1    
    35   15   35 1    
    36   15   36 1    
    37   15   37 1    
@<TRIPOS>SUBSTRUCTURE
     1 ****        1 TEMP              0 ****  ****    0 ROOT 
@<TRIPOS>NORMAL
@<TRIPOS>FF_PBC
FORCE_FIELD_SETUP_FEATURE Force Field Setup information
v1.0  0 0.000000 0.000000 0.000000 0.000000 0.000000 0.000000 NONE 0 0 0 0 1 0 0 0 0 0 0 0 0
