@<TRIPOS>MOLECULE
MOL000492
   35    37     1     1     0
SMALL
GASTEIGER


@<TRIPOS>ATOM
      1 C           0.294951    0.005600    0.488601 C.3       1 <1>         0.116322 
      2 C           0.575496   -1.326873   -0.243878 C.3       1 <1>         0.090048 
      3 C          -0.616383   -2.288153   -0.009154 C.3       1 <1>         0.006117 
      4 C          -1.950880   -1.567141   -0.226253 C.ar      1 <1>         0.014968 
      5 C          -1.991987   -0.082428   -0.271335 C.ar      1 <1>         0.085208 
      6 O          -0.827142    0.669257   -0.113696 O.3       1 <1>        -0.333862 
      7 C          -3.159614    0.554828   -0.474193 C.ar      1 <1>        -0.001449 
      8 C          -4.419853   -0.202981   -0.651168 C.ar      1 <1>         0.077480 
      9 C          -4.388415   -1.561742   -0.609845 C.ar      1 <1>        -0.001737 
     10 C          -3.108544   -2.273301   -0.382747 C.ar      1 <1>         0.080714 
     11 O           1.791536   -1.903051    0.268732 O.3       1 <1>        -0.388542 
     12 O          -3.106161   -3.666841   -0.336489 O.3       1 <1>        -0.359394 
     13 O          -5.611049    0.499283   -0.858215 O.3       1 <1>        -0.359667 
     14 C           1.524654    0.914125    0.374160 C.ar      1 <1>        -0.013328 
     15 C           2.537837    0.949670    1.457357 C.ar      1 <1>        -0.023672 
     16 C           3.664575    1.779709    1.355180 C.ar      1 <1>         0.102526 
     17 C           3.852429    2.635561    0.155364 C.ar      1 <1>         0.102203 
     18 C           2.890251    2.604153   -0.880596 C.ar      1 <1>        -0.029067 
     19 C           1.704019    1.723016   -0.765533 C.ar      1 <1>        -0.053426 
     20 O           4.982562    3.456897    0.076542 O.3       1 <1>        -0.357275 
     21 O           4.604321    1.793408    2.386866 O.3       1 <1>        -0.357268 
     22 H           0.075964   -0.188816    1.551118 H         1 <1>         0.067763 
     23 H           0.677090   -1.100526   -1.320892 H         1 <1>         0.062592 
     24 H          -0.529047   -3.152022   -0.687747 H         1 <1>         0.034073 
     25 H          -0.589525   -2.651576    1.029961 H         1 <1>         0.034073 
     26 H          -3.180618    1.638486   -0.509282 H         1 <1>         0.066920 
     27 H          -5.291335   -2.146812   -0.740909 H         1 <1>         0.066912 
     28 H           2.026348   -2.719417   -0.161968 H         1 <1>         0.209916 
     29 H          -2.777285   -3.994090    0.493608 H         1 <1>         0.217327 
     30 H          -6.395096   -0.038415   -0.884865 H         1 <1>         0.217316 
     31 H           2.416713    0.330250    2.339369 H         1 <1>         0.064760 
     32 H           3.008757    3.220158   -1.765801 H         1 <1>         0.064413 
     33 H           0.974527    1.706073   -1.568151 H         1 <1>         0.062193 
     34 H           5.016499    3.999554   -0.703525 H         1 <1>         0.217422 
     35 H           5.324309    2.384256    2.189483 H         1 <1>         0.217422 
@<TRIPOS>BOND
     1    1    2 1    
     2    1    6 1    
     3    1   14 1    
     4    1   22 1    
     5    2    3 1    
     6    2   11 1    
     7    2   23 1    
     8    3    4 1    
     9    3   24 1    
    10    3   25 1    
    11    4    5 1    
    12    4   10 2    
    13    5    6 1    
    14    5    7 2    
    15    7    8 1    
    16    7   26 1    
    17    8    9 2    
    18    8   13 1    
    19    9   10 1    
    20    9   27 1    
    21   10   12 1    
    22   11   28 1    
    23   12   29 1    
    24   13   30 1    
    25   14   15 1    
    26   14   19 2    
    27   15   16 2    
    28   15   31 1    
    29   16   17 1    
    30   16   21 1    
    31   17   18 2    
    32   17   20 1    
    33   18   19 1    
    34   18   32 1    
    35   19   33 1    
    36   20   34 1    
    37   21   35 1    
@<TRIPOS>SUBSTRUCTURE
     1 ****        1 TEMP              0 ****  ****    0 ROOT 
@<TRIPOS>NORMAL
@<TRIPOS>FF_PBC
FORCE_FIELD_SETUP_FEATURE Force Field Setup information
v1.0  0 0.000000 0.000000 0.000000 0.000000 0.000000 0.000000 NONE 0 0 0 0 1 0 0 0 0 0 0 0 0
