@<TRIPOS>MOLECULE
MOL005841
   44    43     1     1     0
SMALL
GASTEIGER


@<TRIPOS>ATOM
      1 P           0.248503    0.121001   -0.791027 P.3       1 <1>         0.477473 
      2 O           1.658611    0.875255   -0.820582 O.3       1 <1>        -0.286534 
      3 O          -0.940706    1.188488   -0.707583 O.3       1 <1>        -0.286534 
      4 O           0.226960   -0.830224    0.494899 O.3       1 <1>        -0.286534 
      5 O           0.101301   -0.702609   -2.023066 O.2       1 <1>        -0.227127 
      6 C           2.897446    0.154774   -0.869511 C.3       1 <1>         0.059081 
      7 C          -2.228914    1.024365   -1.316591 C.3       1 <1>         0.059081 
      8 C          -0.824354   -1.741351    0.834242 C.3       1 <1>         0.059081 
      9 C           4.071491    1.165088   -0.873347 C.3       1 <1>        -0.029143 
     10 C          -3.110942    2.245636   -0.954459 C.3       1 <1>        -0.029143 
     11 C          -0.440399   -2.476812    2.142226 C.3       1 <1>        -0.029143 
     12 C           5.445574    0.443302   -0.933555 C.3       1 <1>        -0.053819 
     13 C          -4.534091    2.131035   -1.566061 C.3       1 <1>        -0.053819 
     14 C          -1.521159   -3.513429    2.553440 C.3       1 <1>        -0.053819 
     15 C           6.617275    1.459119   -0.929545 C.3       1 <1>        -0.065205 
     16 C          -5.404155    3.361944   -1.201071 C.3       1 <1>        -0.065205 
     17 C          -1.146369   -4.225433    3.879670 C.3       1 <1>        -0.065205 
     18 H           2.970754   -0.506637    0.009168 H         1 <1>         0.056547 
     19 H           2.923872   -0.461273   -1.782857 H         1 <1>         0.056547 
     20 H          -2.103071    0.956684   -2.409338 H         1 <1>         0.056547 
     21 H          -2.701122    0.097014   -0.956625 H         1 <1>         0.056547 
     22 H          -0.958823   -2.462888    0.012514 H         1 <1>         0.056547 
     23 H          -1.761682   -1.182530    0.980294 H         1 <1>         0.056547 
     24 H           3.961799    1.832683   -1.743687 H         1 <1>         0.028736 
     25 H           4.011986    1.777968    0.040926 H         1 <1>         0.028736 
     26 H          -3.184705    2.312798    0.143273 H         1 <1>         0.028736 
     27 H          -2.618636    3.160528   -1.322944 H         1 <1>         0.028736 
     28 H          -0.316618   -1.729646    2.942922 H         1 <1>         0.028736 
     29 H           0.526079   -2.985620    1.993790 H         1 <1>         0.028736 
     30 H           5.547149   -0.227310   -0.064007 H         1 <1>         0.026335 
     31 H           5.501624   -0.169350   -1.848943 H         1 <1>         0.026335 
     32 H          -4.460939    2.052584   -2.663560 H         1 <1>         0.026335 
     33 H          -5.024942    1.218791   -1.188173 H         1 <1>         0.026335 
     34 H          -1.630065   -4.267748    1.755935 H         1 <1>         0.026335 
     35 H          -2.491237   -3.005293    2.681593 H         1 <1>         0.026335 
     36 H           7.580061    0.925771   -0.975092 H         1 <1>         0.022978 
     37 H           6.547521    2.131624   -1.798881 H         1 <1>         0.022978 
     38 H           6.594943    2.064900   -0.010232 H         1 <1>         0.022978 
     39 H          -6.411654    3.256020   -1.633889 H         1 <1>         0.022978 
     40 H          -5.500197    3.452446   -0.107757 H         1 <1>         0.022978 
     41 H          -4.949245    4.284762   -1.594009 H         1 <1>         0.022978 
     42 H          -1.922969   -4.960052    4.147315 H         1 <1>         0.022978 
     43 H          -1.061069   -3.492662    4.697672 H         1 <1>         0.022978 
     44 H          -0.185086   -4.753716    3.776013 H         1 <1>         0.022978 
@<TRIPOS>BOND
     1    1    2 1    
     2    1    3 1    
     3    1    4 1    
     4    1    5 2    
     5    2    6 1    
     6    3    7 1    
     7    4    8 1    
     8    6    9 1    
     9    6   18 1    
    10    6   19 1    
    11    7   10 1    
    12    7   20 1    
    13    7   21 1    
    14    8   11 1    
    15    8   22 1    
    16    8   23 1    
    17    9   12 1    
    18    9   24 1    
    19    9   25 1    
    20   10   13 1    
    21   10   26 1    
    22   10   27 1    
    23   11   14 1    
    24   11   28 1    
    25   11   29 1    
    26   12   15 1    
    27   12   30 1    
    28   12   31 1    
    29   13   16 1    
    30   13   32 1    
    31   13   33 1    
    32   14   17 1    
    33   14   34 1    
    34   14   35 1    
    35   15   36 1    
    36   15   37 1    
    37   15   38 1    
    38   16   39 1    
    39   16   40 1    
    40   16   41 1    
    41   17   42 1    
    42   17   43 1    
    43   17   44 1    
@<TRIPOS>SUBSTRUCTURE
     1 ****        1 TEMP              0 ****  ****    0 ROOT 
@<TRIPOS>NORMAL
@<TRIPOS>FF_PBC
FORCE_FIELD_SETUP_FEATURE Force Field Setup information
v1.0  0 0.000000 0.000000 0.000000 0.000000 0.000000 0.000000 NONE 0 0 0 0 1 0 0 0 0 0 0 0 0
