@<TRIPOS>MOLECULE
MOL002456
   42    41     1     1     0
SMALL
GASTEIGER


@<TRIPOS>ATOM
      1 C          -0.241679   -1.718944    0.128357 C.3       1 <1>        -0.041509 
      2 C           1.126194   -0.994105   -0.079315 C.3       1 <1>        -0.026274 
      3 C          -1.414668   -0.705927    0.307717 C.3       1 <1>        -0.046940 
      4 C          -0.523850   -2.744446   -1.006463 C.3       1 <1>        -0.062334 
      5 C           1.235758   -0.133981   -1.365719 C.3       1 <1>         0.057304 
      6 C          -2.730830   -1.354974    0.820438 C.3       1 <1>        -0.034283 
      7 O           2.531125    0.500847   -1.351715 O.3       1 <1>        -0.315187 
      8 C          -3.776130   -0.285414    1.057889 C.2       1 <1>        -0.085278 
      9 C           2.761362    1.304630   -2.401301 C.2       1 <1>         0.262151 
     10 C          -4.503537   -0.126439    2.175991 C.2       1 <1>        -0.079617 
     11 C           4.081538    2.033049   -2.403397 C.3       1 <1>         0.032950 
     12 O           1.964502    1.459223   -3.313841 O.2       1 <1>        -0.264976 
     13 C          -5.505819    1.000421    2.310126 C.3       1 <1>        -0.044050 
     14 C          -4.383480   -1.044158    3.373277 C.3       1 <1>        -0.044050 
     15 C           4.951269    1.742224   -1.149686 C.3       1 <1>        -0.046907 
     16 C           6.281605    2.538028   -1.186858 C.3       1 <1>        -0.064815 
     17 H          -0.141952   -2.288879    1.069930 H         1 <1>         0.029893 
     18 H           1.319723   -0.335888    0.783909 H         1 <1>         0.029007 
     19 H           1.935608   -1.742630   -0.105402 H         1 <1>         0.029007 
     20 H          -1.115480    0.060773    1.041629 H         1 <1>         0.027080 
     21 H          -1.626231   -0.202128   -0.648119 H         1 <1>         0.027080 
     22 H          -1.353981   -3.413717   -0.735330 H         1 <1>         0.023243 
     23 H           0.362589   -3.372321   -1.185709 H         1 <1>         0.023243 
     24 H          -0.786138   -2.233135   -1.944497 H         1 <1>         0.023243 
     25 H           1.133681   -0.769516   -2.260395 H         1 <1>         0.056588 
     26 H           0.452461    0.640101   -1.374509 H         1 <1>         0.056588 
     27 H          -3.139708   -2.046567    0.068639 H         1 <1>         0.030748 
     28 H          -2.502579   -1.930372    1.728962 H         1 <1>         0.030748 
     29 H          -3.933600    0.405782    0.228588 H         1 <1>         0.057145 
     30 H           3.868087    3.111943   -2.458293 H         1 <1>         0.036598 
     31 H           4.631515    1.741586   -3.311740 H         1 <1>         0.036598 
     32 H          -5.522401    1.669750    1.436496 H         1 <1>         0.027427 
     33 H          -5.258234    1.604732    3.196014 H         1 <1>         0.027427 
     34 H          -6.514629    0.579358    2.437700 H         1 <1>         0.027427 
     35 H          -5.174181   -0.849076    4.113976 H         1 <1>         0.027427 
     36 H          -4.474577   -2.096599    3.064545 H         1 <1>         0.027427 
     37 H          -3.410272   -0.887174    3.862512 H         1 <1>         0.027427 
     38 H           5.174842    0.663105   -1.102721 H         1 <1>         0.026739 
     39 H           4.390999    2.020109   -0.240997 H         1 <1>         0.026739 
     40 H           6.883718    2.311253   -0.292744 H         1 <1>         0.022989 
     41 H           6.081395    3.620671   -1.208180 H         1 <1>         0.022989 
     42 H           6.866081    2.268501   -2.080260 H         1 <1>         0.022989 
@<TRIPOS>BOND
     1    1    2 1    
     2    1    3 1    
     3    1    4 1    
     4    1   17 1    
     5    2    5 1    
     6    2   18 1    
     7    2   19 1    
     8    3    6 1    
     9    3   20 1    
    10    3   21 1    
    11    4   22 1    
    12    4   23 1    
    13    4   24 1    
    14    5    7 1    
    15    5   25 1    
    16    5   26 1    
    17    6    8 1    
    18    6   27 1    
    19    6   28 1    
    20    7    9 1    
    21    8   10 2    
    22    8   29 1    
    23    9   11 1    
    24    9   12 2    
    25   10   13 1    
    26   10   14 1    
    27   11   15 1    
    28   11   30 1    
    29   11   31 1    
    30   13   32 1    
    31   13   33 1    
    32   13   34 1    
    33   14   35 1    
    34   14   36 1    
    35   14   37 1    
    36   15   16 1    
    37   15   38 1    
    38   15   39 1    
    39   16   40 1    
    40   16   41 1    
    41   16   42 1    
@<TRIPOS>SUBSTRUCTURE
     1 ****        1 TEMP              0 ****  ****    0 ROOT 
@<TRIPOS>NORMAL
@<TRIPOS>FF_PBC
FORCE_FIELD_SETUP_FEATURE Force Field Setup information
v1.0  0 0.000000 0.000000 0.000000 0.000000 0.000000 0.000000 NONE 0 0 0 0 1 0 0 0 0 0 0 0 0
