@<TRIPOS>MOLECULE
MOL004831
   57    58     1     1     0
SMALL
GASTEIGER


@<TRIPOS>ATOM
      1 O          -5.981064    1.458432    0.035631 O.3       1 <1>        -0.359551 
      2 O           1.276742    1.984794    1.196857 O.3       1 <1>        -0.358758 
      3 O           1.226212    2.327318    5.209115 O.2       1 <1>        -0.287193 
      4 O           5.215429   -1.013985    1.275078 O.3       1 <1>        -0.359468 
      5 C          -3.634357    0.743872   -0.003562 C.ar      1 <1>        -0.013379 
      6 C          -3.741883    0.233261   -1.448176 C.3       1 <1>        -0.006793 
      7 C          -2.340671    0.627088    0.713265 C.ar      1 <1>        -0.048672 
      8 C          -2.181693    1.137632    2.020990 C.ar      1 <1>        -0.024492 
      9 C          -4.739066    1.340738    0.660147 C.ar      1 <1>         0.076071 
     10 C          -4.405354   -1.120583   -1.510591 C.2       1 <1>        -0.080898 
     11 C          -3.339835    1.767838    2.700291 C.ar      1 <1>        -0.052144 
     12 C          -4.574540    1.860194    2.037826 C.ar      1 <1>        -0.031105 
     13 C          -4.621548   -1.808040   -2.644609 C.2       1 <1>        -0.079307 
     14 C          -0.823976    1.023046    2.678914 C.2       1 <1>        -0.050947 
     15 C          -0.334718    1.939837    3.524975 C.2       1 <1>        -0.013708 
     16 C           2.148019    1.160621    3.368699 C.ar      1 <1>         0.051755 
     17 C          -5.313906   -3.153920   -2.624865 C.3       1 <1>        -0.044040 
     18 C          -4.208055   -1.322303   -4.018997 C.3       1 <1>        -0.044040 
     19 C           1.018476    1.845619    4.107374 C.2       1 <1>         0.188552 
     20 C           2.215147    1.215515    1.887190 C.ar      1 <1>         0.089261 
     21 C           3.134483    0.466456    4.086854 C.ar      1 <1>        -0.046007 
     22 C           3.234520    0.502012    1.181873 C.ar      1 <1>         0.016409 
     23 C           4.199953   -0.267239    3.366691 C.ar      1 <1>        -0.030827 
     24 C           4.240299   -0.276934    1.952551 C.ar      1 <1>         0.078522 
     25 C           3.274493    0.556279   -0.355415 C.3       1 <1>        -0.004341 
     26 C           4.629265    0.274711   -0.962754 C.2       1 <1>        -0.080815 
     27 C           4.862368   -0.559912   -1.989619 C.2       1 <1>        -0.079306 
     28 H          -6.243562    0.659772   -0.407902 H         1 <1>         0.217325 
     29 H           0.881567    1.523591    0.465361 H         1 <1>         0.217352 
     30 H           5.888603   -1.390318    1.830412 H         1 <1>         0.217326 
     31 H          -2.729786    0.164690   -1.875345 H         1 <1>         0.035640 
     32 H          -4.314566    0.964366   -2.040110 H         1 <1>         0.035640 
     33 H          -1.500502    0.149142    0.220520 H         1 <1>         0.062704 
     34 H          -4.724074   -1.551716   -0.560749 H         1 <1>         0.057472 
     35 H          -3.244981    2.152927    3.709617 H         1 <1>         0.062423 
     36 H          -5.424172    2.317423    2.533583 H         1 <1>         0.064347 
     37 H          -0.224506    0.150106    2.420189 H         1 <1>         0.062459 
     38 H          -0.924406    2.808347    3.813294 H         1 <1>         0.065602 
     39 H          -6.140462   -3.154631   -3.351537 H         1 <1>         0.027427 
     40 H          -4.594965   -3.937437   -2.907871 H         1 <1>         0.027427 
     41 H          -5.731675   -3.408055   -1.638995 H         1 <1>         0.027427 
     42 H          -3.627129   -0.390335   -4.017903 H         1 <1>         0.027427 
     43 H          -5.108994   -1.155769   -4.627910 H         1 <1>         0.027427 
     44 H          -3.595303   -2.095186   -4.507253 H         1 <1>         0.027427 
     45 H           3.107904    0.451918    5.172259 H         1 <1>         0.062620 
     46 H           4.943301   -0.809524    3.941375 H         1 <1>         0.064350 
     47 H           3.001434    1.565299   -0.700451 H         1 <1>         0.035721 
     48 H           2.503382   -0.152611   -0.686866 H         1 <1>         0.035721 
     49 H           5.464834    0.808980   -0.508071 H         1 <1>         0.057473 
     50 C           3.759136   -1.307035   -2.706493 C.3       1 <1>        -0.044040 
     51 C           6.265341   -0.809244   -2.499633 C.3       1 <1>        -0.044040 
     52 H           7.035986   -0.295036   -1.905726 H         1 <1>         0.027427 
     53 H           6.343151   -0.459933   -3.540060 H         1 <1>         0.027427 
     54 H           6.477370   -1.888814   -2.469994 H         1 <1>         0.027427 
     55 H           2.934280   -0.626704   -2.966774 H         1 <1>         0.027427 
     56 H           4.119173   -1.756837   -3.644264 H         1 <1>         0.027427 
     57 H           3.379512   -2.113833   -2.061624 H         1 <1>         0.027427 
@<TRIPOS>BOND
     1    9    1 1    
     2    1   28 1    
     3   20    2 1    
     4    2   29 1    
     5   19    3 2    
     6   24    4 1    
     7    4   30 1    
     8    5    6 1    
     9    7    5 1    
    10    5    9 2    
    11    6   10 1    
    12    6   31 1    
    13    6   32 1    
    14    8    7 2    
    15    7   33 1    
    16    8   11 1    
    17   14    8 1    
    18   12    9 1    
    19   10   13 2    
    20   10   34 1    
    21   11   12 2    
    22   11   35 1    
    23   12   36 1    
    24   13   17 1    
    25   13   18 1    
    26   15   14 2    
    27   14   37 1    
    28   19   15 1    
    29   15   38 1    
    30   16   19 1    
    31   20   16 1    
    32   16   21 2    
    33   17   39 1    
    34   17   40 1    
    35   17   41 1    
    36   18   42 1    
    37   18   43 1    
    38   18   44 1    
    39   22   20 2    
    40   21   23 1    
    41   21   45 1    
    42   22   24 1    
    43   22   25 1    
    44   23   24 2    
    45   23   46 1    
    46   25   26 1    
    47   25   47 1    
    48   25   48 1    
    49   26   27 2    
    50   26   49 1    
    51   27   50 1    
    52   27   51 1    
    53   50   55 1    
    54   50   56 1    
    55   50   57 1    
    56   51   52 1    
    57   51   53 1    
    58   51   54 1    
@<TRIPOS>SUBSTRUCTURE
     1 ****        5 TEMP              0 ****  ****    0 ROOT 
@<TRIPOS>NORMAL
@<TRIPOS>FF_PBC
FORCE_FIELD_SETUP_FEATURE Force Field Setup information
v1.0  0 0.000000 0.000000 0.000000 0.000000 0.000000 0.000000 NONE 0 0 0 0 1 0 0 0 0 0 0 0 0
