@<TRIPOS>MOLECULE
MOL004714
   26    27     1     1     0
SMALL
GASTEIGER


@<TRIPOS>ATOM
      1 C          -0.008667   -0.665219   -0.650008 C.3       1 <1>        -0.025283 
      2 C           1.102489    0.401923   -0.423750 C.3       1 <1>        -0.031645 
      3 C          -0.991196    0.060795    0.300715 C.3       1 <1>        -0.014725 
      4 C           0.390119    1.743044   -0.773807 C.3       1 <1>        -0.048862 
      5 C          -1.055136    1.514091   -0.239703 C.3       1 <1>        -0.045745 
      6 C           1.329850    0.399021    1.115555 C.3       1 <1>        -0.028370 
      7 C          -0.102865    0.172140    1.514459 C.2       1 <1>        -0.072731 
      8 C           0.359853   -2.107768   -0.171325 C.3       1 <1>        -0.059008 
      9 C          -0.503093   -0.788242   -2.126944 C.3       1 <1>        -0.059008 
     10 C          -0.524821    0.078153    2.779824 C.2       1 <1>        -0.099158 
     11 H           2.030743    0.238529   -0.994861 H         1 <1>         0.030916 
     12 H          -1.963922   -0.430441    0.461721 H         1 <1>         0.035080 
     13 H           0.406488    1.928410   -1.859127 H         1 <1>         0.026838 
     14 H           0.874991    2.611326   -0.299033 H         1 <1>         0.026838 
     15 H          -1.324039    2.222539    0.561867 H         1 <1>         0.027123 
     16 H          -1.810020    1.607533   -1.036411 H         1 <1>         0.027123 
     17 H           1.987400   -0.421857    1.439050 H         1 <1>         0.031284 
     18 H           1.733635    1.345077    1.507890 H         1 <1>         0.031284 
     19 H          -0.479625   -2.792847   -0.363729 H         1 <1>         0.023525 
     20 H           1.234834   -2.464599   -0.735467 H         1 <1>         0.023525 
     21 H           0.588374   -2.197702    0.898921 H         1 <1>         0.023525 
     22 H          -1.362379   -1.474253   -2.173299 H         1 <1>         0.023525 
     23 H           0.307383   -1.205195   -2.743805 H         1 <1>         0.023525 
     24 H          -0.824873    0.146474   -2.599557 H         1 <1>         0.023525 
     25 H           0.181813    0.167073    3.604103 H         1 <1>         0.053449 
     26 H          -1.577234   -0.087706    3.006523 H         1 <1>         0.053449 
@<TRIPOS>BOND
     1    1    2 1    
     2    1    3 1    
     3    1    8 1    
     4    1    9 1    
     5    2    4 1    
     6    2    6 1    
     7    2   11 1    
     8    3    5 1    
     9    3    7 1    
    10    3   12 1    
    11    4    5 1    
    12    4   13 1    
    13    4   14 1    
    14    5   15 1    
    15    5   16 1    
    16    6    7 1    
    17    6   17 1    
    18    6   18 1    
    19    7   10 2    
    20    8   19 1    
    21    8   20 1    
    22    8   21 1    
    23    9   22 1    
    24    9   23 1    
    25    9   24 1    
    26   10   25 1    
    27   10   26 1    
@<TRIPOS>SUBSTRUCTURE
     1 ****        1 TEMP              0 ****  ****    0 ROOT 
@<TRIPOS>NORMAL
@<TRIPOS>FF_PBC
FORCE_FIELD_SETUP_FEATURE Force Field Setup information
v1.0  0 0.000000 0.000000 0.000000 0.000000 0.000000 0.000000 NONE 0 0 0 0 1 0 0 0 0 0 0 0 0
