@<TRIPOS>MOLECULE
MOL001303
   39    39     1     1     0
SMALL
GASTEIGER


@<TRIPOS>ATOM
      1 C          -1.095289    1.099391    0.789117 C.3       1 <1>        -0.007811 
      2 C          -1.044631   -0.460106    0.624367 C.3       1 <1>        -0.011061 
      3 C           0.381188   -1.023917    0.939840 C.3       1 <1>        -0.039223 
      4 C           1.603529   -0.316968    0.257805 C.3       1 <1>        -0.019820 
      5 C           1.442560    1.224804    0.416554 C.3       1 <1>        -0.045719 
      6 C           0.051351    1.731503   -0.052425 C.3       1 <1>        -0.043098 
      7 C           2.097996   -0.855719   -1.084637 C.2       1 <1>        -0.076591 
      8 C           2.261095   -2.170373   -1.299987 C.2       1 <1>        -0.099446 
      9 C           2.470867    0.129033   -2.179091 C.3       1 <1>        -0.043777 
     10 C          -1.755561   -1.039267   -0.602086 C.2       1 <1>        -0.075785 
     11 C          -3.080022   -1.268987   -0.612221 C.2       1 <1>        -0.099420 
     12 C          -0.940813   -1.383107   -1.828363 C.3       1 <1>        -0.043750 
     13 C          -2.455243    1.676451    0.294334 C.3       1 <1>        -0.055559 
     14 C          -0.953389    1.629737    2.215373 C.2       1 <1>        -0.084621 
     15 C          -1.046332    0.961939    3.374552 C.2       1 <1>        -0.102094 
     16 H          -1.686884   -0.861163    1.422220 H         1 <1>         0.035389 
     17 H           0.374280   -2.110422    0.778759 H         1 <1>         0.027693 
     18 H           0.541275   -0.884706    2.022154 H         1 <1>         0.027693 
     19 H           2.490665   -0.569539    0.868340 H         1 <1>         0.034560 
     20 H           2.242890    1.770287   -0.104628 H         1 <1>         0.027124 
     21 H           1.549300    1.482353    1.483928 H         1 <1>         0.027124 
     22 H           0.033961    2.830780    0.037319 H         1 <1>         0.027384 
     23 H          -0.119383    1.509073   -1.110637 H         1 <1>         0.027384 
     24 H           2.058029   -2.924495   -0.543288 H         1 <1>         0.053440 
     25 H           2.621581   -2.556003   -2.252728 H         1 <1>         0.053440 
     26 H           1.689278    0.870943   -2.376604 H         1 <1>         0.027436 
     27 H           2.674782   -0.374091   -3.136253 H         1 <1>         0.027436 
     28 H           3.391795    0.654062   -1.885790 H         1 <1>         0.027436 
     29 H          -3.719017   -1.054748    0.243517 H         1 <1>         0.053441 
     30 H          -3.589070   -1.687811   -1.479670 H         1 <1>         0.053441 
     31 H          -1.572746   -1.627803   -2.695167 H         1 <1>         0.027437 
     32 H          -0.300162   -0.552587   -2.133783 H         1 <1>         0.027437 
     33 H          -0.328628   -2.268163   -1.616372 H         1 <1>         0.027437 
     34 H          -2.476844    2.773508    0.387926 H         1 <1>         0.023821 
     35 H          -3.280743    1.272730    0.898708 H         1 <1>         0.023821 
     36 H          -2.635921    1.435284   -0.763671 H         1 <1>         0.023821 
     37 H          -0.761074    2.700454    2.316837 H         1 <1>         0.057195 
     38 H          -0.918228    1.500875    4.314668 H         1 <1>         0.053192 
     39 H          -1.246520   -0.100271    3.484980 H         1 <1>         0.053192 
@<TRIPOS>BOND
     1    1    2 1    
     2    1    6 1    
     3    1   13 1    
     4    1   14 1    
     5    2    3 1    
     6    2   10 1    
     7    2   16 1    
     8    3    4 1    
     9    3   17 1    
    10    3   18 1    
    11    4    5 1    
    12    4    7 1    
    13    4   19 1    
    14    5    6 1    
    15    5   20 1    
    16    5   21 1    
    17    6   22 1    
    18    6   23 1    
    19    7    8 2    
    20    7    9 1    
    21    8   24 1    
    22    8   25 1    
    23    9   26 1    
    24    9   27 1    
    25    9   28 1    
    26   10   11 2    
    27   10   12 1    
    28   11   29 1    
    29   11   30 1    
    30   12   31 1    
    31   12   32 1    
    32   12   33 1    
    33   13   34 1    
    34   13   35 1    
    35   13   36 1    
    36   14   15 2    
    37   14   37 1    
    38   15   38 1    
    39   15   39 1    
@<TRIPOS>SUBSTRUCTURE
     1 ****        1 TEMP              0 ****  ****    0 ROOT 
@<TRIPOS>NORMAL
@<TRIPOS>FF_PBC
FORCE_FIELD_SETUP_FEATURE Force Field Setup information
v1.0  0 0.000000 0.000000 0.000000 0.000000 0.000000 0.000000 NONE 0 0 0 0 1 0 0 0 0 0 0 0 0
