@<TRIPOS>MOLECULE
MOL012961
   82    87     1     1     0
SMALL
GASTEIGER


@<TRIPOS>ATOM
      1 O           0.899672    2.219380    1.924651 O.3       1 <1>        -0.347589 
      2 O           1.198990    3.673119    0.110457 O.3       1 <1>        -0.340889 
      3 O          -1.455689    3.334732    2.520426 O.3       1 <1>        -0.388286 
      4 O          -0.902079   -6.446386   -2.069341 O.3       1 <1>        -0.391248 
      5 C           0.055762    0.311231    0.839768 C.3       1 <1>         0.008081 
      6 C           0.042468   -1.271245    0.752069 C.3       1 <1>        -0.020557 
      7 C          -1.328788    1.002072    0.589671 C.3       1 <1>        -0.022254 
      8 C          -0.759314   -1.742457   -0.517479 C.3       1 <1>        -0.029356 
      9 C          -0.929195    2.479395    0.300683 C.3       1 <1>         0.045172 
     10 C           0.589156    2.452305    0.547125 C.3       1 <1>         0.176956 
     11 C           1.002706    1.114846   -0.095378 C.3       1 <1>         0.010330 
     12 C          -0.685931   -3.272991   -0.956114 C.3       1 <1>        -0.025246 
     13 C           0.565001    0.861491    2.209202 C.3       1 <1>         0.057503 
     14 C          -2.125757    0.401139   -0.601884 C.3       1 <1>        -0.048816 
     15 C           1.500308   -1.815434    0.601367 C.3       1 <1>        -0.046476 
     16 C           0.828708   -3.692649   -1.019718 C.3       1 <1>        -0.027845 
     17 C          -2.200790   -1.141380   -0.499393 C.3       1 <1>        -0.048911 
     18 C          -1.585024    3.622676    1.119202 C.3       1 <1>         0.073921 
     19 C           1.569902   -3.337886    0.307387 C.3       1 <1>        -0.048617 
     20 C          -0.565338   -1.781952    2.103406 C.3       1 <1>        -0.058701 
     21 C           1.172253   -5.130260   -1.585560 C.3       1 <1>        -0.005589 
     22 C          -1.280868   -3.409281   -2.412293 C.3       1 <1>        -0.044730 
     23 C          -1.526919   -4.205216   -0.012726 C.3       1 <1>        -0.059019 
     24 C          -0.832215    4.936819    0.742856 C.3       1 <1>         0.006275 
     25 C           0.109241   -5.594963   -2.640852 C.3       1 <1>         0.060637 
     26 C          -0.513761   -4.375231   -3.367653 C.3       1 <1>        -0.025831 
     27 C           0.709307    4.789938    0.890519 C.3       1 <1>         0.082911 
     28 C          -3.093997    3.733713    0.764362 C.3       1 <1>        -0.035536 
     29 C           2.570683   -5.084804   -2.301371 C.3       1 <1>        -0.057190 
     30 C           1.293849   -6.227967   -0.481961 C.3       1 <1>        -0.057190 
     31 C           1.417277    6.025719    0.384012 C.2       1 <1>        -0.056719 
     32 C           1.826905    7.063488    1.137813 C.2       1 <1>        -0.077208 
     33 C           2.576069    8.232737    0.533147 C.3       1 <1>        -0.043969 
     34 C           1.584193    7.144698    2.628447 C.3       1 <1>        -0.043969 
     35 H          -1.825384    4.012606    3.079225 H         1 <1>         0.210163 
     36 H          -1.551189   -6.753417   -2.695557 H         1 <1>         0.209800 
     37 H          -1.962585    0.935534    1.486700 H         1 <1>         0.031229 
     38 H          -0.237221   -1.217448   -1.332687 H         1 <1>         0.031156 
     39 H          -1.049579    2.731767   -0.764809 H         1 <1>         0.038356 
     40 H           2.080509    0.957498    0.061952 H         1 <1>         0.032341 
     41 H           0.771342    1.050443   -1.168133 H         1 <1>         0.032341 
     42 H           1.497753    0.392898    2.554328 H         1 <1>         0.056658 
     43 H          -0.173536    0.831121    3.025220 H         1 <1>         0.056658 
     44 H          -3.142443    0.826954   -0.612202 H         1 <1>         0.026833 
     45 H          -1.662886    0.649418   -1.569189 H         1 <1>         0.026833 
     46 H           2.100802   -1.602332    1.498583 H         1 <1>         0.027088 
     47 H           2.001467   -1.325227   -0.246066 H         1 <1>         0.027088 
     48 H           1.255570   -3.002806   -1.765654 H         1 <1>         0.031210 
     49 H          -2.801424   -1.500017   -1.348463 H         1 <1>         0.026837 
     50 H          -2.755656   -1.398986    0.413223 H         1 <1>         0.026837 
     51 H           2.638860   -3.588966    0.228421 H         1 <1>         0.026846 
     52 H           1.178637   -3.899691    1.165355 H         1 <1>         0.026846 
     53 H          -1.495790   -1.262709    2.366157 H         1 <1>         0.023534 
     54 H           0.135070   -1.629715    2.936159 H         1 <1>         0.023534 
     55 H          -0.786434   -2.845562    2.116980 H         1 <1>         0.023534 
     56 H          -2.339015   -3.717263   -2.362936 H         1 <1>         0.027149 
     57 H          -1.287100   -2.447395   -2.949822 H         1 <1>         0.027149 
     58 H          -2.407084   -3.685895    0.383017 H         1 <1>         0.023525 
     59 H          -0.970503   -4.606341    0.835053 H         1 <1>         0.023525 
     60 H          -1.925366   -5.087226   -0.521330 H         1 <1>         0.023525 
     61 H          -1.042895    5.190428   -0.306986 H         1 <1>         0.032111 
     62 H          -1.190499    5.768988    1.367097 H         1 <1>         0.032111 
     63 H           0.604310   -6.231787   -3.398827 H         1 <1>         0.059852 
     64 H           0.301282   -3.834929   -3.877551 H         1 <1>         0.029037 
     65 H          -1.195567   -4.727641   -4.160111 H         1 <1>         0.029037 
     66 H           0.967996    4.625471    1.949797 H         1 <1>         0.064228 
     67 H          -3.626598    2.821358    1.070149 H         1 <1>         0.025733 
     68 H          -3.550518    4.587754    1.286017 H         1 <1>         0.025733 
     69 H          -3.238124    3.874528   -0.317458 H         1 <1>         0.025733 
     70 H           2.867990   -6.082663   -2.660246 H         1 <1>         0.023587 
     71 H           3.370439   -4.737578   -1.633880 H         1 <1>         0.023587 
     72 H           2.556593   -4.417064   -3.175827 H         1 <1>         0.023587 
     73 H           2.135076   -6.027005    0.197830 H         1 <1>         0.023587 
     74 H           0.381805   -6.321921    0.120036 H         1 <1>         0.023587 
     75 H           1.478116   -7.208796   -0.947840 H         1 <1>         0.023587 
     76 H           1.599900    6.045222   -0.690206 H         1 <1>         0.059695 
     77 H           2.827507    8.084793   -0.528698 H         1 <1>         0.027428 
     78 H           1.963904    9.144950    0.614573 H         1 <1>         0.027428 
     79 H           3.514777    8.384856    1.087758 H         1 <1>         0.027428 
     80 H           0.595452    6.753000    2.908089 H         1 <1>         0.027428 
     81 H           2.361722    6.566918    3.150208 H         1 <1>         0.027428 
     82 H           1.633054    8.187123    2.980142 H         1 <1>         0.027428 
@<TRIPOS>BOND
     1    1   10 1    
     2   13    1 1    
     3   10    2 1    
     4    2   27 1    
     5   18    3 1    
     6    3   35 1    
     7   25    4 1    
     8    4   36 1    
     9    6    5 1    
    10    5    7 1    
    11    5   11 1    
    12    5   13 1    
    13    8    6 1    
    14   15    6 1    
    15    6   20 1    
    16    7    9 1    
    17   14    7 1    
    18    7   37 1    
    19   12    8 1    
    20    8   17 1    
    21    8   38 1    
    22   10    9 1    
    23    9   18 1    
    24    9   39 1    
    25   11   10 1    
    26   11   40 1    
    27   11   41 1    
    28   16   12 1    
    29   12   22 1    
    30   12   23 1    
    31   13   42 1    
    32   13   43 1    
    33   17   14 1    
    34   14   44 1    
    35   14   45 1    
    36   19   15 1    
    37   15   46 1    
    38   15   47 1    
    39   16   19 1    
    40   21   16 1    
    41   16   48 1    
    42   17   49 1    
    43   17   50 1    
    44   18   24 1    
    45   18   28 1    
    46   19   51 1    
    47   19   52 1    
    48   20   53 1    
    49   20   54 1    
    50   20   55 1    
    51   21   25 1    
    52   21   29 1    
    53   21   30 1    
    54   22   26 1    
    55   22   56 1    
    56   22   57 1    
    57   23   58 1    
    58   23   59 1    
    59   23   60 1    
    60   24   27 1    
    61   24   61 1    
    62   24   62 1    
    63   25   26 1    
    64   25   63 1    
    65   26   64 1    
    66   26   65 1    
    67   27   31 1    
    68   27   66 1    
    69   28   67 1    
    70   28   68 1    
    71   28   69 1    
    72   29   70 1    
    73   29   71 1    
    74   29   72 1    
    75   30   73 1    
    76   30   74 1    
    77   30   75 1    
    78   31   32 2    
    79   31   76 1    
    80   32   33 1    
    81   32   34 1    
    82   33   77 1    
    83   33   78 1    
    84   33   79 1    
    85   34   80 1    
    86   34   81 1    
    87   34   82 1    
@<TRIPOS>SUBSTRUCTURE
     1 ****        5 TEMP              0 ****  ****    0 ROOT 
@<TRIPOS>NORMAL
@<TRIPOS>FF_PBC
FORCE_FIELD_SETUP_FEATURE Force Field Setup information
v1.0  0 0.000000 0.000000 0.000000 0.000000 0.000000 0.000000 NONE 0 0 0 0 1 0 0 0 0 0 0 0 0
