@<TRIPOS>MOLECULE
MOL001653
   30    32     1     1     0
SMALL
GASTEIGER


@<TRIPOS>ATOM
      1 O           3.360815   -1.299625    0.685546 O.3       1 <1>        -0.303518 
      2 O          -2.514936   -1.741061    0.211884 O.3       1 <1>        -0.366101 
      3 O          -0.733326   -2.777325   -0.796109 O.3       1 <1>        -0.321968 
      4 O          -0.707522    1.515389   -1.101066 O.3       1 <1>        -0.311002 
      5 O           3.558994   -2.441217   -1.222835 O.2       1 <1>        -0.259476 
      6 O          -1.686365    2.418713   -2.855378 O.2       1 <1>        -0.265273 
      7 C           0.998299   -1.792432    1.115534 C.3       1 <1>         0.033325 
      8 C          -0.285964   -0.954273    0.940087 C.3       1 <1>         0.043308 
      9 C           2.210844   -0.878473    1.456899 C.3       1 <1>         0.094555 
     10 C          -1.165499   -1.517575   -0.223880 C.3       1 <1>         0.168467 
     11 C           0.350748    0.400110    0.741512 C.2       1 <1>        -0.036562 
     12 C           1.437985   -2.264192   -0.227346 C.2       1 <1>         0.053299 
     13 C           1.662691    0.438281    0.990123 C.2       1 <1>        -0.052569 
     14 C           2.866886   -2.019287   -0.312015 C.2       1 <1>         0.292633 
     15 C           0.571145   -2.789602   -1.092669 C.2       1 <1>         0.052358 
     16 C          -0.495011    1.576587    0.322314 C.3       1 <1>         0.078670 
     17 C          -1.436669    2.497486   -1.664549 C.2       1 <1>         0.259336 
     18 C          -1.940195    3.686046   -0.879812 C.3       1 <1>         0.021444 
     19 H          -2.945948   -0.948147    0.513294 H         1 <1>         0.212509 
     20 H           0.886674   -2.657166    1.790460 H         1 <1>         0.038726 
     21 H          -0.844087   -0.935880    1.890408 H         1 <1>         0.040250 
     22 H           2.436466   -0.818157    2.533938 H         1 <1>         0.065291 
     23 H          -1.173965   -0.817055   -1.073698 H         1 <1>         0.091761 
     24 H           2.284676    1.326696    0.888786 H         1 <1>         0.059829 
     25 H           0.919096   -3.224941   -2.028933 H         1 <1>         0.089059 
     26 H           0.042413    2.496326    0.600685 H         1 <1>         0.061290 
     27 H          -1.440747    1.523684    0.883530 H         1 <1>         0.061290 
     28 H          -2.577771    3.379271   -0.038834 H         1 <1>         0.033023 
     29 H          -1.095867    4.286455   -0.512043 H         1 <1>         0.033023 
     30 H          -2.543858    4.331563   -1.536031 H         1 <1>         0.033023 
@<TRIPOS>BOND
     1    9    1 1    
     2    1   14 1    
     3   10    2 1    
     4    2   19 1    
     5   10    3 1    
     6    3   15 1    
     7   16    4 1    
     8    4   17 1    
     9   14    5 2    
    10   17    6 2    
    11    8    7 1    
    12    9    7 1    
    13    7   12 1    
    14    7   20 1    
    15    8   10 1    
    16   11    8 1    
    17    8   21 1    
    18   13    9 1    
    19    9   22 1    
    20   10   23 1    
    21   11   13 2    
    22   11   16 1    
    23   12   14 1    
    24   12   15 2    
    25   13   24 1    
    26   15   25 1    
    27   16   26 1    
    28   16   27 1    
    29   17   18 1    
    30   18   28 1    
    31   18   29 1    
    32   18   30 1    
@<TRIPOS>SUBSTRUCTURE
     1 ****        7 TEMP              0 ****  ****    0 ROOT 
@<TRIPOS>NORMAL
@<TRIPOS>FF_PBC
FORCE_FIELD_SETUP_FEATURE Force Field Setup information
v1.0  0 0.000000 0.000000 0.000000 0.000000 0.000000 0.000000 NONE 0 0 0 0 1 0 0 0 0 0 0 0 0
