@<TRIPOS>MOLECULE
MOL013352
   63    68     1     1     0
SMALL
GASTEIGER


@<TRIPOS>ATOM
      1 O          -2.443106   -1.949020   -1.201399 O.3       1 <1>        -0.352476 
      2 O          -4.510790   -1.138378    0.754191 O.3       1 <1>        -0.304178 
      3 O          -0.105659   -2.185551    1.651167 O.2       1 <1>        -0.296706 
      4 O           4.816777    0.788432    0.043566 O.3       1 <1>        -0.305485 
      5 O          -4.223506   -3.175188    1.552854 O.2       1 <1>        -0.261946 
      6 O          -6.131543    2.580740    1.390469 O.2       1 <1>        -0.220612 
      7 O           5.160223    2.278706    1.633395 O.2       1 <1>        -0.259870 
      8 C          -1.721322   -1.149243   -0.294638 C.3       1 <1>         0.126129 
      9 C          -0.167912   -1.180254   -0.503564 C.3       1 <1>         0.062235 
     10 C          -2.472416    0.149829    0.090009 C.3       1 <1>         0.032072 
     11 C           0.371761    0.291806   -0.576039 C.3       1 <1>        -0.016938 
     12 C          -2.497424   -2.476490    0.099361 C.3       1 <1>         0.174500 
     13 C           1.937235    0.544912   -0.613743 C.3       1 <1>        -0.003984 
     14 C          -1.971209    1.305477   -0.850781 C.3       1 <1>        -0.041842 
     15 C          -0.575861    1.082902   -1.528660 C.3       1 <1>        -0.047764 
     16 C          -3.996973   -0.123701   -0.131188 C.3       1 <1>         0.109557 
     17 C           2.635320   -0.374145    0.476517 C.3       1 <1>         0.003985 
     18 C           0.522833   -1.769911    0.690460 C.2       1 <1>         0.142721 
     19 C           0.109546   -2.077591   -1.756528 C.3       1 <1>        -0.049748 
     20 C           2.024291   -1.802545    0.643388 C.3       1 <1>         0.012712 
     21 C          -2.284631    0.441172    1.619440 C.3       1 <1>        -0.054077 
     22 C          -3.803516   -2.285052    0.836661 C.2       1 <1>         0.294796 
     23 C           4.213713   -0.429148    0.505331 C.3       1 <1>         0.077597 
     24 C           2.533477    0.469217   -2.051282 C.3       1 <1>        -0.055445 
     25 C           2.137699    2.013953   -0.210072 C.2       1 <1>        -0.071779 
     26 C          -4.861585    1.095361    0.199428 C.ar      1 <1>         0.086373 
     27 C           4.756013   -0.711342    1.943142 C.3       1 <1>        -0.035178 
     28 C           4.846379   -1.501351   -0.433617 C.3       1 <1>        -0.035178 
     29 C           3.201976    2.553676    0.397764 C.2       1 <1>         0.006576 
     30 C          -5.300881    2.171285   -0.699712 C.ar      1 <1>         0.048517 
     31 C          -5.411872    1.406917    1.411217 C.ar      1 <1>         0.326709 
     32 C           4.446476    1.856344    0.738908 C.2       1 <1>         0.286804 
     33 C          -6.047005    3.013919    0.087402 C.ar      1 <1>         0.321428 
     34 H           0.167379    0.740455    0.398672 H         1 <1>         0.031938 
     35 H          -1.916916   -3.399372    0.240445 H         1 <1>         0.073137 
     36 H          -1.936067    2.237276   -0.263389 H         1 <1>         0.027244 
     37 H          -2.682025    1.478734   -1.673387 H         1 <1>         0.027244 
     38 H          -0.695880    0.519375   -2.465477 H         1 <1>         0.026868 
     39 H          -0.192387    2.066263   -1.836879 H         1 <1>         0.026868 
     40 H          -4.227851   -0.399354   -1.173755 H         1 <1>         0.066173 
     41 H           2.329932    0.111014    1.419254 H         1 <1>         0.034095 
     42 H          -0.450220   -1.740589   -2.639727 H         1 <1>         0.024011 
     43 H           1.155033   -2.150325   -2.057645 H         1 <1>         0.024011 
     44 H          -0.211558   -3.107198   -1.540211 H         1 <1>         0.024011 
     45 H           2.369116   -2.270560    1.577216 H         1 <1>         0.034562 
     46 H           2.321794   -2.472312   -0.169638 H         1 <1>         0.034562 
     47 H          -2.672110    1.437941    1.873056 H         1 <1>         0.023689 
     48 H          -2.824417   -0.285621    2.242112 H         1 <1>         0.023689 
     49 H          -1.250937    0.392346    1.975232 H         1 <1>         0.023689 
     50 H           3.556785    0.873047   -2.070178 H         1 <1>         0.023822 
     51 H           2.578082   -0.543415   -2.457583 H         1 <1>         0.023822 
     52 H           1.937412    1.079262   -2.745745 H         1 <1>         0.023822 
     53 H           1.360119    2.750992   -0.401830 H         1 <1>         0.057951 
     54 H           4.311440   -0.037101    2.690545 H         1 <1>         0.025746 
     55 H           4.563507   -1.746244    2.258724 H         1 <1>         0.025746 
     56 H           5.844807   -0.552858    1.960000 H         1 <1>         0.025746 
     57 H           4.521218   -1.385030   -1.474893 H         1 <1>         0.025746 
     58 H           5.941943   -1.389038   -0.421611 H         1 <1>         0.025746 
     59 H           4.627732   -2.528106   -0.107731 H         1 <1>         0.025746 
     60 H           3.191756    3.609204    0.677177 H         1 <1>         0.067419 
     61 H          -5.085955    2.274890   -1.759277 H         1 <1>         0.071077 
     62 H          -5.297396    0.798182    2.303951 H         1 <1>         0.176354 
     63 H          -6.523946    3.924307   -0.269377 H         1 <1>         0.175965 
@<TRIPOS>BOND
     1    8    1 1    
     2   12    1 1    
     3   16    2 1    
     4    2   22 1    
     5   18    3 2    
     6   23    4 1    
     7    4   32 1    
     8   22    5 2    
     9   31    6 1    
    10    6   33 1    
    11   32    7 2    
    12    8    9 1    
    13   10    8 1    
    14    8   12 1    
    15    9   11 1    
    16    9   18 1    
    17    9   19 1    
    18   10   14 1    
    19   16   10 1    
    20   10   21 1    
    21   11   13 1    
    22   15   11 1    
    23   11   34 1    
    24   22   12 1    
    25   12   35 1    
    26   13   17 1    
    27   13   24 1    
    28   13   25 1    
    29   14   15 1    
    30   14   36 1    
    31   14   37 1    
    32   15   38 1    
    33   15   39 1    
    34   26   16 1    
    35   16   40 1    
    36   20   17 1    
    37   17   23 1    
    38   17   41 1    
    39   18   20 1    
    40   19   42 1    
    41   19   43 1    
    42   19   44 1    
    43   20   45 1    
    44   20   46 1    
    45   21   47 1    
    46   21   48 1    
    47   21   49 1    
    48   23   27 1    
    49   23   28 1    
    50   24   50 1    
    51   24   51 1    
    52   24   52 1    
    53   25   29 2    
    54   25   53 1    
    55   26   30 1    
    56   26   31 2    
    57   27   54 1    
    58   27   55 1    
    59   27   56 1    
    60   28   57 1    
    61   28   58 1    
    62   28   59 1    
    63   29   32 1    
    64   29   60 1    
    65   30   33 2    
    66   30   61 1    
    67   31   62 1    
    68   33   63 1    
@<TRIPOS>SUBSTRUCTURE
     1 ****        1 TEMP              0 ****  ****    0 ROOT 
@<TRIPOS>NORMAL
@<TRIPOS>FF_PBC
FORCE_FIELD_SETUP_FEATURE Force Field Setup information
v1.0  0 0.000000 0.000000 0.000000 0.000000 0.000000 0.000000 NONE 0 0 0 0 1 0 0 0 0 0 0 0 0
