@<TRIPOS>MOLECULE
MOL011039
   54    53     1     1     0
SMALL
GASTEIGER


@<TRIPOS>ATOM
      1 O          -6.011012   -9.264632    0.000116 O.3       1 <1>        -0.331267 
      2 O          -4.599851  -10.947907    0.000475 O.2       1 <1>        -0.265177 
      3 C          -1.276513   -4.213345   -0.000023 C.3       1 <1>        -0.053057 
      4 C          -1.520733   -2.679013    0.000173 C.3       1 <1>        -0.053048 
      5 C          -2.621327   -4.991446    0.000164 C.3       1 <1>        -0.053045 
      6 C          -0.187635   -1.881509   -0.000091 C.3       1 <1>        -0.052779 
      7 C          -2.397835   -6.528962   -0.000057 C.3       1 <1>        -0.052596 
      8 C          -0.452749   -0.350447    0.000063 C.3       1 <1>        -0.049616 
      9 C          -3.752389   -7.291960    0.000089 C.3       1 <1>        -0.044061 
     10 C           0.870326    0.461716   -0.000373 C.3       1 <1>        -0.034761 
     11 C           2.694146    5.137110   -0.000019 C.3       1 <1>        -0.049616 
     12 C           2.428466    6.667708    0.000150 C.3       1 <1>        -0.052788 
     13 C           1.370425    4.325899    0.000400 C.3       1 <1>        -0.034761 
     14 C           3.759421    7.468926   -0.000117 C.3       1 <1>        -0.053297 
     15 C           0.617769    1.951095   -0.000301 C.2       1 <1>        -0.087932 
     16 C          -3.541872   -8.832551   -0.000236 C.3       1 <1>         0.033006 
     17 C           1.622400    2.836487    0.000323 C.2       1 <1>        -0.087932 
     18 C           3.503250    9.000686    0.000093 C.3       1 <1>        -0.055911 
     19 C           4.836535    9.793464   -0.000133 C.3       1 <1>        -0.065276 
     20 C          -4.759345   -9.738490    0.000145 C.2       1 <1>         0.259588 
     21 H          -6.109527   -8.323224   -0.000145 H         1 <1>         0.220208 
     22 H          -0.693369   -4.490754   -0.893562 H         1 <1>         0.026528 
     23 H          -0.693017   -4.490923    0.893219 H         1 <1>         0.026528 
     24 H          -2.105969   -2.405345    0.893504 H         1 <1>         0.026529 
     25 H          -2.106395   -2.405201   -0.892849 H         1 <1>         0.026529 
     26 H          -3.202748   -4.709368    0.893446 H         1 <1>         0.026529 
     27 H          -3.203097   -4.709167   -0.892840 H         1 <1>         0.026529 
     28 H           0.399263   -2.150951   -0.893638 H         1 <1>         0.026538 
     29 H           0.399696   -2.151058    0.893123 H         1 <1>         0.026538 
     30 H          -1.816696   -6.811297   -0.893516 H         1 <1>         0.026540 
     31 H          -1.816378   -6.811504    0.893114 H         1 <1>         0.026540 
     32 H          -1.039240   -0.081117    0.894175 H         1 <1>         0.026822 
     33 H          -1.039834   -0.081069   -0.893657 H         1 <1>         0.026822 
     34 H          -4.320734   -6.998525    0.898297 H         1 <1>         0.027004 
     35 H          -4.321061   -6.998191   -0.897815 H         1 <1>         0.027004 
     36 H           1.459953    0.203415   -0.894685 H         1 <1>         0.030732 
     37 H           1.460589    0.203333    0.893493 H         1 <1>         0.030732 
     38 H           3.280674    4.868240   -0.894234 H         1 <1>         0.026822 
     39 H           3.281258    4.868178    0.893784 H         1 <1>         0.026822 
     40 H           1.841090    6.936162    0.893683 H         1 <1>         0.026537 
     41 H           1.840642    6.936285   -0.893059 H         1 <1>         0.026537 
     42 H           0.780757    4.584528    0.894668 H         1 <1>         0.030732 
     43 H           0.780135    4.584615   -0.893441 H         1 <1>         0.030732 
     44 H           4.346544    7.199725   -0.893610 H         1 <1>         0.026520 
     45 H           4.346985    7.199571    0.893029 H         1 <1>         0.026520 
     46 H          -0.408540    2.321458   -0.000779 H         1 <1>         0.056896 
     47 H          -2.951889   -9.102550   -0.890313 H         1 <1>         0.036600 
     48 H          -2.951231   -9.102777    0.889329 H         1 <1>         0.036600 
     49 H           2.648737    2.466270    0.000800 H         1 <1>         0.056896 
     50 H           2.919363    9.277663    0.893768 H         1 <1>         0.026265 
     51 H           2.918952    9.277835   -0.893267 H         1 <1>         0.026265 
     52 H           4.634764   10.876439    0.000018 H         1 <1>         0.022978 
     53 H           5.429274    9.548225   -0.895234 H         1 <1>         0.022978 
     54 H           5.429675    9.548050    0.894651 H         1 <1>         0.022978 
@<TRIPOS>BOND
     1   20    1 1    
     2    1   21 1    
     3   20    2 2    
     4    3    4 1    
     5    5    3 1    
     6    3   22 1    
     7    3   23 1    
     8    4    6 1    
     9    4   24 1    
    10    4   25 1    
    11    7    5 1    
    12    5   26 1    
    13    5   27 1    
    14    6    8 1    
    15    6   28 1    
    16    6   29 1    
    17    9    7 1    
    18    7   30 1    
    19    7   31 1    
    20    8   10 1    
    21    8   32 1    
    22    8   33 1    
    23   16    9 1    
    24    9   34 1    
    25    9   35 1    
    26   10   15 1    
    27   10   36 1    
    28   10   37 1    
    29   11   12 1    
    30   13   11 1    
    31   11   38 1    
    32   11   39 1    
    33   12   14 1    
    34   12   40 1    
    35   12   41 1    
    36   17   13 1    
    37   13   42 1    
    38   13   43 1    
    39   14   18 1    
    40   14   44 1    
    41   14   45 1    
    42   15   17 2    
    43   15   46 1    
    44   16   20 1    
    45   16   47 1    
    46   16   48 1    
    47   17   49 1    
    48   18   19 1    
    49   18   50 1    
    50   18   51 1    
    51   19   52 1    
    52   19   53 1    
    53   19   54 1    
@<TRIPOS>SUBSTRUCTURE
     1 ****        3 TEMP              0 ****  ****    0 ROOT 
@<TRIPOS>NORMAL
@<TRIPOS>FF_PBC
FORCE_FIELD_SETUP_FEATURE Force Field Setup information
v1.0  0 0.000000 0.000000 0.000000 0.000000 0.000000 0.000000 NONE 0 0 0 0 1 0 0 0 0 0 0 0 0
