@<TRIPOS>MOLECULE
MOL002098
   27    28     1     1     0
SMALL
GASTEIGER


@<TRIPOS>ATOM
      1 C           2.138041   -0.735399    0.536284 C.2       1 <1>         0.301932 
      2 O           1.389484   -0.548788   -0.561125 O.3       1 <1>        -0.273571 
      3 C           0.349026    0.170075   -0.105158 C.2       1 <1>         0.090510 
      4 C           0.438029    0.461151    1.373240 C.ar      1 <1>         0.020633 
      5 C          -0.448404    1.198736    2.302259 C.ar      1 <1>        -0.051208 
      6 C          -0.043791    1.280378    3.671221 C.ar      1 <1>        -0.058651 
      7 C           1.224629    0.639194    4.109339 C.ar      1 <1>        -0.031129 
      8 C           2.026990   -0.052642    3.163636 C.ar      1 <1>         0.086099 
      9 C           1.545143   -0.098166    1.764605 C.ar      1 <1>         0.086046 
     10 O           3.188649   -1.355297    0.542642 O.2       1 <1>        -0.258713 
     11 O           3.221180   -0.661279    3.551237 O.3       1 <1>        -0.359033 
     12 C          -0.642481    0.567548   -0.912033 C.2       1 <1>        -0.052746 
     13 C          -0.695951    0.259393   -2.390282 C.3       1 <1>        -0.032268 
     14 C          -1.936484   -0.617863   -2.703930 C.3       1 <1>        -0.052380 
     15 C          -2.031466   -0.946325   -4.216828 C.3       1 <1>        -0.064997 
     16 H          -1.368604    1.659002    1.960125 H         1 <1>         0.062446 
     17 H          -0.660250    1.808921    4.391378 H         1 <1>         0.061856 
     18 H           1.540246    0.696985    5.145618 H         1 <1>         0.064342 
     19 H           3.669121   -1.087447    2.827084 H         1 <1>         0.217341 
     20 H          -1.463531    1.145871   -0.489790 H         1 <1>         0.059789 
     21 H          -0.761882    1.210797   -2.941995 H         1 <1>         0.030812 
     22 H           0.213236   -0.263386   -2.727446 H         1 <1>         0.030812 
     23 H          -1.868309   -1.557886   -2.131031 H         1 <1>         0.026559 
     24 H          -2.852536   -0.089048   -2.391023 H         1 <1>         0.026559 
     25 H          -2.916956   -1.571484   -4.413455 H         1 <1>         0.022987 
     26 H          -2.118080   -0.019801   -4.805630 H         1 <1>         0.022987 
     27 H          -1.135449   -1.493642   -4.548641 H         1 <1>         0.022987 
@<TRIPOS>BOND
     1    1    2 1    
     2    1    9 1    
     3    1   10 2    
     4    2    3 1    
     5    3    4 1    
     6    3   12 2    
     7    4    5 1    
     8    4    9 2    
     9    5    6 2    
    10    5   16 1    
    11    6    7 1    
    12    6   17 1    
    13    7    8 2    
    14    7   18 1    
    15    8    9 1    
    16    8   11 1    
    17   11   19 1    
    18   12   13 1    
    19   12   20 1    
    20   13   14 1    
    21   13   21 1    
    22   13   22 1    
    23   14   15 1    
    24   14   23 1    
    25   14   24 1    
    26   15   25 1    
    27   15   26 1    
    28   15   27 1    
@<TRIPOS>SUBSTRUCTURE
     1 ****        1 TEMP              0 ****  ****    0 ROOT 
@<TRIPOS>NORMAL
@<TRIPOS>FF_PBC
FORCE_FIELD_SETUP_FEATURE Force Field Setup information
v1.0  0 0.000000 0.000000 0.000000 0.000000 0.000000 0.000000 NONE 0 0 0 0 1 0 0 0 0 0 0 0 0
