@<TRIPOS>MOLECULE
MOL012991
  157   166     1     1     0
SMALL
GASTEIGER


@<TRIPOS>ATOM
      1 C           5.850516   -0.759046   -1.262796 C.3       1 <1>         0.008081 
      2 C           5.901174    0.795238   -1.147756 C.3       1 <1>        -0.022254 
      3 C           4.379451   -1.312296   -1.035963 C.3       1 <1>        -0.020557 
      4 C           6.963722   -1.105896   -0.247214 C.3       1 <1>         0.010330 
      5 C           6.613865   -1.222883   -2.552111 C.3       1 <1>         0.057503 
      6 C           7.409059    1.121361   -1.244995 C.3       1 <1>         0.045172 
      7 C           4.991096    1.498396   -2.179319 C.3       1 <1>        -0.048816 
      8 C           3.400465   -0.536451   -2.004127 C.3       1 <1>        -0.029356 
      9 C           4.261560   -2.828107   -1.404121 C.3       1 <1>        -0.046476 
     10 C           4.047987   -1.182949    0.491556 C.3       1 <1>        -0.058701 
     11 C           8.023481   -0.280518   -1.007724 C.3       1 <1>         0.176956 
     12 O           7.996579   -0.922824   -2.285748 O.3       1 <1>        -0.347589 
     13 C           7.982476    2.120651   -0.205940 C.3       1 <1>         0.073921 
     14 C           3.540842    1.023804   -1.915763 C.3       1 <1>        -0.048911 
     15 C           1.891909   -1.030876   -2.024364 C.3       1 <1>        -0.025246 
     16 C           2.809242   -3.387072   -1.359582 C.3       1 <1>        -0.048617 
     17 O           9.272234   -0.278893   -0.297664 O.3       1 <1>        -0.340889 
     18 C           9.517793    2.195963   -0.455636 C.3       1 <1>         0.006275 
     19 C           7.334183    3.526794   -0.346401 C.3       1 <1>        -0.035536 
     20 O           7.704739    1.616032    1.113664 O.3       1 <1>        -0.388286 
     21 C           1.853506   -2.585922   -2.294156 C.3       1 <1>        -0.027836 
     22 C           1.152665   -0.357885   -3.246256 C.3       1 <1>        -0.044721 
     23 C           1.178905   -0.607355   -0.690123 C.3       1 <1>        -0.059019 
     24 C          10.157822    0.787723   -0.677259 C.3       1 <1>         0.082911 
     25 C           0.432614   -3.269832   -2.471304 C.3       1 <1>        -0.005230 
     26 C          -0.034688   -1.172124   -3.847277 C.3       1 <1>        -0.025470 
     27 C          10.646522    0.601365   -2.099680 C.2       1 <1>        -0.056719 
     28 C          -0.644788   -2.197974   -2.856133 C.3       1 <1>         0.067174 
     29 C           0.514430   -4.364382   -3.595822 C.3       1 <1>        -0.057181 
     30 C          -0.085784   -4.051274   -1.213041 C.3       1 <1>        -0.057181 
     31 C          11.926832    0.419503   -2.477623 C.2       1 <1>        -0.077208 
     32 O          -1.168146   -1.655170   -1.627523 O.3       1 <1>        -0.344893 
     33 C          12.298411    0.253797   -3.935432 C.3       1 <1>        -0.043969 
     34 C          13.075853    0.366907   -1.497545 C.3       1 <1>        -0.043969 
     35 C          -2.202083   -0.653659   -1.716419 C.3       1 <1>         0.188196 
     36 C          -2.688484   -0.435608   -0.254523 C.3       1 <1>         0.140966 
     37 O          -1.624489    0.529051   -2.291603 O.3       1 <1>        -0.346051 
     38 C          -3.566704    0.851560   -0.122543 C.3       1 <1>         0.120590 
     39 O          -3.352086   -1.683856    0.055086 O.3       1 <1>        -0.337751 
     40 C          -2.488640    1.666756   -2.250518 C.3       1 <1>         0.079203 
     41 O          -3.874005    1.073612    1.276690 O.3       1 <1>        -0.340043 
     42 C          -2.764079    2.020990   -0.769007 C.3       1 <1>         0.107307 
     43 C          -3.709653   -1.893323    1.433599 C.3       1 <1>         0.188431 
     44 C          -4.626134    2.257503    1.619104 C.3       1 <1>         0.188803 
     45 O          -1.528188    2.205059   -0.047219 O.3       1 <1>        -0.386848 
     46 C          -5.214933   -2.220325    1.402475 C.3       1 <1>         0.134123 
     47 O          -2.962508   -3.027550    1.908040 O.3       1 <1>        -0.343067 
     48 C          -5.941755    1.904722    2.372904 C.3       1 <1>         0.140628 
     49 O          -3.657944    2.942029    2.433875 O.3       1 <1>        -0.340510 
     50 C          -5.700121   -2.557485    2.835418 C.3       1 <1>         0.113972 
     51 O          -5.872773   -1.083243    0.819617 O.3       1 <1>        -0.384104 
     52 C          -3.321415   -3.437341    3.244608 C.3       1 <1>         0.087307 
     53 O          -6.846534    1.474049    1.323773 O.3       1 <1>        -0.337771 
     54 C          -6.467256    3.181941    3.098944 C.3       1 <1>         0.114429 
     55 C          -4.129860    4.180724    2.983851 C.3       1 <1>         0.113005 
     56 C          -4.846843   -3.739115    3.371464 C.3       1 <1>         0.109478 
     57 O          -5.620422   -1.394992    3.683259 O.3       1 <1>        -0.386402 
     58 C          -2.781975   -2.468575    4.335779 C.3       1 <1>        -0.036060 
     59 C          -8.147335    0.996444    1.729207 C.3       1 <1>         0.188134 
     60 C          -5.348021    3.900065    3.895151 C.3       1 <1>         0.111906 
     61 O          -7.516356    2.880782    4.041636 O.3       1 <1>        -0.386391 
     62 C          -2.970684    4.809444    3.799012 C.3       1 <1>         0.073015 
     63 O          -5.213796   -4.903013    2.602321 O.3       1 <1>        -0.386579 
     64 C          -9.143085    1.666946    0.752100 C.3       1 <1>         0.134103 
     65 O          -8.167449   -0.437750    1.574151 O.3       1 <1>        -0.346058 
     66 O          -5.901901    5.128181    4.408526 O.3       1 <1>        -0.386488 
     67 O          -3.444650    5.992918    4.473474 O.3       1 <1>        -0.392366 
     68 C         -10.557202    1.062760    0.923860 C.3       1 <1>         0.113709 
     69 O          -9.173922    3.087599    1.001097 O.3       1 <1>        -0.384104 
     70 C          -9.459559   -1.024584    1.820294 C.3       1 <1>         0.079193 
     71 C         -10.491632   -0.479763    0.802182 C.3       1 <1>         0.106933 
     72 O         -11.413981    1.618059   -0.092225 O.3       1 <1>        -0.386412 
     73 O         -11.806330   -1.011657    1.053055 O.3       1 <1>        -0.386859 
     74 H           5.571348    1.122216   -0.151758 H         1 <1>         0.031229 
     75 H           7.655272    1.478663   -2.257861 H         1 <1>         0.038356 
     76 H           3.799969   -0.767177   -3.004793 H         1 <1>         0.031156 
     77 H           2.331118   -2.660364   -3.285135 H         1 <1>         0.031210 
     78 H           7.217104   -2.177286   -0.198754 H         1 <1>         0.032341 
     79 H           6.841455   -0.717406    0.775082 H         1 <1>         0.032341 
     80 H           6.653641   -2.312517   -2.681205 H         1 <1>         0.056658 
     81 H           6.275629   -0.777690   -3.496738 H         1 <1>         0.056658 
     82 H           5.057755    2.591930   -2.056829 H         1 <1>         0.026833 
     83 H           5.285984    1.272436   -3.213993 H         1 <1>         0.026833 
     84 H           4.914789   -3.428249   -0.750076 H         1 <1>         0.027088 
     85 H           4.575260   -3.003749   -2.442511 H         1 <1>         0.027088 
     86 H           4.794591   -1.716925    1.093802 H         1 <1>         0.023534 
     87 H           4.014915   -0.144798    0.841381 H         1 <1>         0.023534 
     88 H           3.101558   -1.637807    0.788956 H         1 <1>         0.023534 
     89 H           2.917637    1.535038   -2.663478 H         1 <1>         0.026837 
     90 H           3.249666    1.419142   -0.934010 H         1 <1>         0.026837 
     91 H           2.859299   -4.434265   -1.701078 H         1 <1>         0.026846 
     92 H           2.418579   -3.420770   -0.336294 H         1 <1>         0.026846 
     93 H           9.984298    2.709137    0.401739 H         1 <1>         0.032111 
     94 H           9.713682    2.819756   -1.343287 H         1 <1>         0.032111 
     95 H           7.831246    4.241100    0.327490 H         1 <1>         0.025733 
     96 H           6.269965    3.491282   -0.073551 H         1 <1>         0.025733 
     97 H           7.422264    3.900111   -1.378060 H         1 <1>         0.025733 
     98 H           8.041421    2.166269    1.812098 H         1 <1>         0.210163 
     99 H           0.789179    0.645645   -2.976769 H         1 <1>         0.027149 
    100 H           1.849163   -0.196433   -4.086041 H         1 <1>         0.027149 
    101 H           1.777471    0.029373   -0.037983 H         1 <1>         0.023525 
    102 H           0.290664    0.006967   -0.852190 H         1 <1>         0.023525 
    103 H           0.881525   -1.467983   -0.087307 H         1 <1>         0.023525 
    104 H          10.986457    0.675518    0.035915 H         1 <1>         0.064228 
    105 H           0.320958   -1.735082   -4.723456 H         1 <1>         0.029047 
    106 H          -0.811107   -0.502102   -4.248626 H         1 <1>         0.029047 
    107 H           9.885042    0.625062   -2.875057 H         1 <1>         0.059695 
    108 H          -1.496628   -2.699177   -3.345526 H         1 <1>         0.060224 
    109 H          -0.461446   -4.850849   -3.748583 H         1 <1>         0.023587 
    110 H           1.232617   -5.152455   -3.325729 H         1 <1>         0.023587 
    111 H           0.831338   -3.964729   -4.568639 H         1 <1>         0.023587 
    112 H           0.535771   -4.930726   -0.990392 H         1 <1>         0.023587 
    113 H          -0.135911   -3.447827   -0.299735 H         1 <1>         0.023587 
    114 H          -1.106755   -4.418184   -1.402176 H         1 <1>         0.023587 
    115 H          13.014559    1.039081   -4.220769 H         1 <1>         0.027428 
    116 H          11.436589    0.320181   -4.615081 H         1 <1>         0.027428 
    117 H          12.771460   -0.728796   -4.081474 H         1 <1>         0.027428 
    118 H          14.044099    0.247860   -2.008409 H         1 <1>         0.027428 
    119 H          13.119469    1.297868   -0.912230 H         1 <1>         0.027428 
    120 H          12.948880   -0.488617   -0.816794 H         1 <1>         0.027428 
    121 H          -3.050583   -1.011082   -2.323054 H         1 <1>         0.093749 
    122 H          -1.801295   -0.318026    0.388380 H         1 <1>         0.067487 
    123 H          -4.512685    0.687828   -0.663481 H         1 <1>         0.065136 
    124 H          -1.953059    2.493652   -2.742698 H         1 <1>         0.058735 
    125 H          -3.421096    1.482437   -2.809261 H         1 <1>         0.058735 
    126 H          -3.325255    2.967860   -0.768100 H         1 <1>         0.064310 
    127 H          -3.531272   -1.029113    2.083038 H         1 <1>         0.093753 
    128 H          -4.932701    2.882502    0.767012 H         1 <1>         0.093763 
    129 H          -0.961851    2.871576   -0.420476 H         1 <1>         0.209990 
    130 H          -5.355852   -3.096027    0.745342 H         1 <1>         0.067095 
    131 H          -5.732472    1.106284    3.100831 H         1 <1>         0.067477 
    132 H          -6.756547   -2.872410    2.769170 H         1 <1>         0.064757 
    133 H          -6.821694   -1.157530    0.809267 H         1 <1>         0.210110 
    134 H          -2.776145   -4.383628    3.397804 H         1 <1>         0.062075 
    135 H          -6.847856    3.869344    2.322874 H         1 <1>         0.064768 
    136 H          -4.417733    4.889546    2.189648 H         1 <1>         0.064668 
    137 H          -5.108252   -3.921874    4.428076 H         1 <1>         0.064584 
    138 H          -5.967399   -1.537456    4.557900 H         1 <1>         0.210005 
    139 H          -2.926553   -2.909708    5.334415 H         1 <1>         0.025536 
    140 H          -1.703164   -2.311999    4.179089 H         1 <1>         0.025536 
    141 H          -3.269431   -1.485697    4.333314 H         1 <1>         0.025536 
    142 H          -8.441584    1.246650    2.755469 H         1 <1>         0.093743 
    143 H          -5.038929    3.240367    4.724052 H         1 <1>         0.064673 
    144 H          -7.860156    3.666286    4.459024 H         1 <1>         0.210005 
    145 H          -2.142415    5.049970    3.110836 H         1 <1>         0.058370 
    146 H          -2.607829    4.073122    4.535503 H         1 <1>         0.058370 
    147 H          -4.765034   -5.699298    2.871698 H         1 <1>         0.210002 
    148 H          -8.790310    1.467695   -0.274916 H         1 <1>         0.067095 
    149 H          -5.248783    5.653739    4.865145 H         1 <1>         0.210004 
    150 H          -2.763110    6.434720    4.973338 H         1 <1>         0.209508 
    151 H         -10.934680    1.335722    1.924545 H         1 <1>         0.064747 
    152 H          -9.779973    3.535450    0.418010 H         1 <1>         0.210110 
    153 H          -9.361881   -2.114069    1.693517 H         1 <1>         0.058735 
    154 H          -9.795446   -0.833245    2.852158 H         1 <1>         0.058735 
    155 H         -10.164359   -0.731713   -0.222101 H         1 <1>         0.064300 
    156 H         -12.297651    1.266216   -0.038432 H         1 <1>         0.210005 
    157 H         -11.853085   -1.958277    0.958072 H         1 <1>         0.209989 
@<TRIPOS>BOND
     1    1    2 1    
     2    1    3 1    
     3    1    4 1    
     4    1    5 1    
     5    2    6 1    
     6    2    7 1    
     7    2   74 1    
     8    3    8 1    
     9    3    9 1    
    10    3   10 1    
    11    4   11 1    
    12    4   78 1    
    13    4   79 1    
    14    5   12 1    
    15    5   80 1    
    16    5   81 1    
    17    6   11 1    
    18    6   13 1    
    19    6   75 1    
    20    7   14 1    
    21    7   82 1    
    22    7   83 1    
    23    8   14 1    
    24    8   15 1    
    25    8   76 1    
    26    9   16 1    
    27    9   84 1    
    28    9   85 1    
    29   10   86 1    
    30   10   87 1    
    31   10   88 1    
    32   11   12 1    
    33   11   17 1    
    34   13   18 1    
    35   13   19 1    
    36   13   20 1    
    37   14   89 1    
    38   14   90 1    
    39   15   21 1    
    40   15   22 1    
    41   15   23 1    
    42   16   21 1    
    43   16   91 1    
    44   16   92 1    
    45   17   24 1    
    46   18   24 1    
    47   18   93 1    
    48   18   94 1    
    49   19   95 1    
    50   19   96 1    
    51   19   97 1    
    52   20   98 1    
    53   21   25 1    
    54   21   77 1    
    55   22   26 1    
    56   22   99 1    
    57   22  100 1    
    58   23  101 1    
    59   23  102 1    
    60   23  103 1    
    61   24   27 1    
    62   24  104 1    
    63   25   28 1    
    64   25   29 1    
    65   25   30 1    
    66   26   28 1    
    67   26  105 1    
    68   26  106 1    
    69   27   31 2    
    70   27  107 1    
    71   28   32 1    
    72   28  108 1    
    73   29  109 1    
    74   29  110 1    
    75   29  111 1    
    76   30  112 1    
    77   30  113 1    
    78   30  114 1    
    79   31   33 1    
    80   31   34 1    
    81   32   35 1    
    82   33  115 1    
    83   33  116 1    
    84   33  117 1    
    85   34  118 1    
    86   34  119 1    
    87   34  120 1    
    88   35   36 1    
    89   35   37 1    
    90   35  121 1    
    91   36   38 1    
    92   36   39 1    
    93   36  122 1    
    94   37   40 1    
    95   38   41 1    
    96   38   42 1    
    97   38  123 1    
    98   39   43 1    
    99   40   42 1    
   100   40  124 1    
   101   40  125 1    
   102   41   44 1    
   103   42   45 1    
   104   42  126 1    
   105   43   46 1    
   106   43   47 1    
   107   43  127 1    
   108   44   48 1    
   109   44   49 1    
   110   44  128 1    
   111   45  129 1    
   112   46   50 1    
   113   46   51 1    
   114   46  130 1    
   115   47   52 1    
   116   48   53 1    
   117   48   54 1    
   118   48  131 1    
   119   49   55 1    
   120   50   56 1    
   121   50   57 1    
   122   50  132 1    
   123   51  133 1    
   124   52   56 1    
   125   52   58 1    
   126   52  134 1    
   127   53   59 1    
   128   54   60 1    
   129   54   61 1    
   130   54  135 1    
   131   55   60 1    
   132   55   62 1    
   133   55  136 1    
   134   56   63 1    
   135   56  137 1    
   136   57  138 1    
   137   58  139 1    
   138   58  140 1    
   139   58  141 1    
   140   59   64 1    
   141   59   65 1    
   142   59  142 1    
   143   60   66 1    
   144   60  143 1    
   145   61  144 1    
   146   62   67 1    
   147   62  145 1    
   148   62  146 1    
   149   63  147 1    
   150   64   68 1    
   151   64   69 1    
   152   64  148 1    
   153   65   70 1    
   154   66  149 1    
   155   67  150 1    
   156   68   71 1    
   157   68   72 1    
   158   68  151 1    
   159   69  152 1    
   160   70   71 1    
   161   70  153 1    
   162   70  154 1    
   163   71   73 1    
   164   71  155 1    
   165   72  156 1    
   166   73  157 1    
@<TRIPOS>SUBSTRUCTURE
     1 ****        1 TEMP              0 ****  ****    0 ROOT 
@<TRIPOS>NORMAL
@<TRIPOS>FF_PBC
FORCE_FIELD_SETUP_FEATURE Force Field Setup information
v1.0  0 0.000000 0.000000 0.000000 0.000000 0.000000 0.000000 NONE 0 0 0 0 1 0 0 0 0 0 0 0 0
