@<TRIPOS>MOLECULE
MOL000357
  101   105     1     1     0
SMALL
GASTEIGER


@<TRIPOS>ATOM
      1 C           1.708763   -0.211215    0.025081 C.3       1 <1>        -0.031972 
      2 C           0.360009   -0.978210   -0.073854 C.3       1 <1>        -0.030653 
      3 C           1.594486    1.242960    0.565472 C.3       1 <1>        -0.025885 
      4 C           2.798006   -0.856824    0.903661 C.3       1 <1>        -0.049160 
      5 C          -0.651740   -0.208959   -0.974976 C.3       1 <1>        -0.028547 
      6 C           0.592526   -2.385207   -0.680281 C.3       1 <1>        -0.031102 
      7 C           3.117537    1.625173    0.625455 C.3       1 <1>        -0.032778 
      8 C           0.704431    1.976219   -0.490144 C.3       1 <1>        -0.046813 
      9 C           0.979598    1.343328    2.001169 C.3       1 <1>        -0.059038 
     10 C           3.779135    0.319180    1.169874 C.3       1 <1>        -0.049187 
     11 C          -2.056929   -0.929862   -1.008451 C.3       1 <1>        -0.007819 
     12 C          -0.700613    1.313428   -0.620059 C.3       1 <1>        -0.048644 
     13 C          -0.699860   -3.062644   -1.039126 C.2       1 <1>        -0.083873 
     14 C           3.588007    2.906136    1.409826 C.3       1 <1>        -0.040533 
     15 C          -1.878285   -2.436252   -1.185019 C.2       1 <1>        -0.064832 
     16 C          -2.877525   -0.408595   -2.232830 C.3       1 <1>        -0.041305 
     17 C          -2.868666   -0.669944    0.305550 C.3       1 <1>        -0.055578 
     18 C           5.152040    3.082498    1.403087 C.3       1 <1>        -0.049933 
     19 C           2.923198    4.200963    0.848641 C.3       1 <1>        -0.062146 
     20 C          -3.112293   -3.253015   -1.534034 C.3       1 <1>        -0.004719 
     21 C          -4.219906   -1.155310   -2.453989 C.3       1 <1>        -0.025405 
     22 C           5.926834    2.368049    2.561056 C.3       1 <1>        -0.049734 
     23 C          -3.961318   -2.666304   -2.688327 C.3       1 <1>         0.065489 
     24 C           7.322812    2.964180    2.956327 C.3       1 <1>        -0.038944 
     25 O          -5.141745   -3.502371   -2.765575 O.3       1 <1>        -0.345117 
     26 C           7.304783    4.168647    3.970274 C.3       1 <1>        -0.043894 
     27 C           8.237301    3.240204    1.719064 C.3       1 <1>        -0.052828 
     28 C          -6.195950   -3.014109   -3.616425 C.3       1 <1>         0.188218 
     29 C           6.601639    5.462910    3.475386 C.3       1 <1>        -0.062414 
     30 C           6.738827    3.793372    5.374009 C.3       1 <1>        -0.062414 
     31 C           8.582993    1.960943    0.906672 C.3       1 <1>        -0.065017 
     32 O          -6.965646   -2.001559   -2.935269 O.3       1 <1>        -0.340523 
     33 C          -7.079451   -4.179410   -4.141837 C.3       1 <1>         0.134121 
     34 C          -7.799456   -2.498459   -1.860788 C.3       1 <1>         0.113005 
     35 C          -7.986916   -4.757103   -3.024505 C.3       1 <1>         0.114061 
     36 O          -7.853499   -3.705931   -5.267109 O.3       1 <1>        -0.384104 
     37 C          -8.776375   -3.599723   -2.356817 C.3       1 <1>         0.111896 
     38 C          -7.039317   -2.893379   -0.562140 C.3       1 <1>         0.073015 
     39 O          -7.193299   -5.511118   -2.087158 O.3       1 <1>        -0.386401 
     40 O          -9.706406   -2.996878   -3.282070 O.3       1 <1>        -0.386488 
     41 O          -7.986488   -3.288488    0.449710 O.3       1 <1>        -0.392366 
     42 H           2.127127   -0.175473   -0.997010 H         1 <1>         0.030896 
     43 H          -0.037724   -1.126438    0.937444 H         1 <1>         0.030949 
     44 H          -0.221727   -0.256396   -1.990007 H         1 <1>         0.031195 
     45 H           3.291258   -1.709309    0.406719 H         1 <1>         0.026828 
     46 H           2.343862   -1.223804    1.838433 H         1 <1>         0.026828 
     47 H           1.141429   -3.011633    0.041515 H         1 <1>         0.031025 
     48 H           1.188875   -2.325666   -1.604181 H         1 <1>         0.031025 
     49 H           3.450167    1.761359   -0.418182 H         1 <1>         0.030870 
     50 H           0.537905    3.028470   -0.231051 H         1 <1>         0.027078 
     51 H           1.193715    1.964963   -1.477883 H         1 <1>         0.027078 
     52 H           0.818211    2.398592    2.259642 H         1 <1>         0.023524 
     53 H           1.637266    0.914496    2.768816 H         1 <1>         0.023524 
     54 H           0.011381    0.842059    2.106825 H         1 <1>         0.023524 
     55 H           3.950622    0.377068    2.255997 H         1 <1>         0.026828 
     56 H           4.745524    0.137724    0.669565 H         1 <1>         0.026828 
     57 H          -1.245897    1.859896   -1.405764 H         1 <1>         0.026846 
     58 H          -1.240757    1.487531    0.317985 H         1 <1>         0.026846 
     59 H          -0.627377   -4.141371   -1.185656 H         1 <1>         0.057190 
     60 H           3.262587    2.837878    2.459467 H         1 <1>         0.030096 
     61 H          -3.112653    0.660259   -2.115974 H         1 <1>         0.027446 
     62 H          -2.278833   -0.522003   -3.151618 H         1 <1>         0.027446 
     63 H          -3.755573   -1.307274    0.398178 H         1 <1>         0.023820 
     64 H          -2.269680   -0.854845    1.205553 H         1 <1>         0.023820 
     65 H          -3.237396    0.364865    0.346108 H         1 <1>         0.023820 
     66 H           5.388999    4.145721    1.489960 H         1 <1>         0.026802 
     67 H           5.548517    2.775461    0.423485 H         1 <1>         0.026802 
     68 H           3.347216    5.111598    1.299340 H         1 <1>         0.023250 
     69 H           1.855023    4.237899    1.089619 H         1 <1>         0.023250 
     70 H           3.055355    4.261932   -0.242279 H         1 <1>         0.023250 
     71 H          -2.853201   -4.282598   -1.830694 H         1 <1>         0.033519 
     72 H          -3.742138   -3.346361   -0.638856 H         1 <1>         0.033519 
     73 H          -4.712282   -0.716456   -3.337678 H         1 <1>         0.029048 
     74 H          -4.892292   -1.002170   -1.602238 H         1 <1>         0.029048 
     75 H           6.100074    1.323970    2.264779 H         1 <1>         0.026810 
     76 H           5.305874    2.335739    3.465219 H         1 <1>         0.026810 
     77 H          -3.390767   -2.771557   -3.627799 H         1 <1>         0.059993 
     78 H           7.844219    2.167543    3.518796 H         1 <1>         0.030319 
     79 H           8.361936    4.439200    4.147205 H         1 <1>         0.029814 
     80 H           9.196138    3.663928    2.062853 H         1 <1>         0.026538 
     81 H           7.779513    3.977276    1.042453 H         1 <1>         0.026538 
     82 H          -5.761155   -2.566067   -4.525417 H         1 <1>         0.093750 
     83 H           6.816415    6.293908    4.166009 H         1 <1>         0.023242 
     84 H           6.958111    5.761453    2.478569 H         1 <1>         0.023242 
     85 H           5.509527    5.331245    3.453757 H         1 <1>         0.023242 
     86 H           6.951621    4.600808    6.093242 H         1 <1>         0.023242 
     87 H           7.202339    2.871881    5.757812 H         1 <1>         0.023242 
     88 H           5.648630    3.653655    5.352481 H         1 <1>         0.023242 
     89 H           9.288814    2.212033    0.098780 H         1 <1>         0.022986 
     90 H           7.689851    1.516381    0.445569 H         1 <1>         0.022986 
     91 H           9.056529    1.206948    1.554594 H         1 <1>         0.022986 
     92 H          -6.401802   -4.978486   -4.491042 H         1 <1>         0.067095 
     93 H          -8.429750   -1.640634   -1.573024 H         1 <1>         0.064668 
     94 H          -8.700512   -5.461040   -3.486753 H         1 <1>         0.064758 
     95 H          -8.386591   -4.377105   -5.680612 H         1 <1>         0.210110 
     96 H          -9.356552   -3.990858   -1.503295 H         1 <1>         0.064673 
     97 H          -6.329545   -3.712602   -0.733412 H         1 <1>         0.058370 
     98 H          -6.474872   -2.020726   -0.198612 H         1 <1>         0.058370 
     99 H          -7.704149   -5.909272   -1.388390 H         1 <1>         0.210005 
    100 H         -10.361468   -3.597619   -3.622316 H         1 <1>         0.210004 
    101 H          -7.575593   -3.528875    1.275671 H         1 <1>         0.209508 
@<TRIPOS>BOND
     1    1    2 1    
     2    1    3 1    
     3    1    4 1    
     4    1   42 1    
     5    2    5 1    
     6    2    6 1    
     7    2   43 1    
     8    3    7 1    
     9    3    8 1    
    10    3    9 1    
    11    4   10 1    
    12    4   45 1    
    13    4   46 1    
    14    5   11 1    
    15    5   12 1    
    16    5   44 1    
    17    6   13 1    
    18    6   47 1    
    19    6   48 1    
    20    7   10 1    
    21    7   14 1    
    22    7   49 1    
    23    8   12 1    
    24    8   50 1    
    25    8   51 1    
    26    9   52 1    
    27    9   53 1    
    28    9   54 1    
    29   10   55 1    
    30   10   56 1    
    31   11   15 1    
    32   11   16 1    
    33   11   17 1    
    34   12   57 1    
    35   12   58 1    
    36   13   15 2    
    37   13   59 1    
    38   14   18 1    
    39   14   19 1    
    40   14   60 1    
    41   15   20 1    
    42   16   21 1    
    43   16   61 1    
    44   16   62 1    
    45   17   63 1    
    46   17   64 1    
    47   17   65 1    
    48   18   22 1    
    49   18   66 1    
    50   18   67 1    
    51   19   68 1    
    52   19   69 1    
    53   19   70 1    
    54   20   23 1    
    55   20   71 1    
    56   20   72 1    
    57   21   23 1    
    58   21   73 1    
    59   21   74 1    
    60   22   24 1    
    61   22   75 1    
    62   22   76 1    
    63   23   25 1    
    64   23   77 1    
    65   24   26 1    
    66   24   27 1    
    67   24   78 1    
    68   25   28 1    
    69   26   29 1    
    70   26   30 1    
    71   26   79 1    
    72   27   31 1    
    73   27   80 1    
    74   27   81 1    
    75   28   32 1    
    76   28   33 1    
    77   28   82 1    
    78   29   83 1    
    79   29   84 1    
    80   29   85 1    
    81   30   86 1    
    82   30   87 1    
    83   30   88 1    
    84   31   89 1    
    85   31   90 1    
    86   31   91 1    
    87   32   34 1    
    88   33   35 1    
    89   33   36 1    
    90   33   92 1    
    91   34   37 1    
    92   34   38 1    
    93   34   93 1    
    94   35   37 1    
    95   35   39 1    
    96   35   94 1    
    97   36   95 1    
    98   37   40 1    
    99   37   96 1    
   100   38   41 1    
   101   38   97 1    
   102   38   98 1    
   103   39   99 1    
   104   40  100 1    
   105   41  101 1    
@<TRIPOS>SUBSTRUCTURE
     1 ****        1 TEMP              0 ****  ****    0 ROOT 
@<TRIPOS>NORMAL
@<TRIPOS>FF_PBC
FORCE_FIELD_SETUP_FEATURE Force Field Setup information
v1.0  0 0.000000 0.000000 0.000000 0.000000 0.000000 0.000000 NONE 0 0 0 0 1 0 0 0 0 0 0 0 0
