@<TRIPOS>MOLECULE
MOL011543
   58    60     1     1     0
SMALL
GASTEIGER


@<TRIPOS>ATOM
      1 O           0.528335    2.040745   -0.784169 O.3       1 <1>        -0.337759 
      2 O          -1.152182    0.861676    0.276103 O.3       1 <1>        -0.340519 
      3 O           2.849360   -0.779375    0.021196 O.3       1 <1>        -0.340512 
      4 O           0.569490   -0.953825   -0.262792 O.3       1 <1>        -0.344048 
      5 O           2.717080    3.370739    0.490445 O.3       1 <1>        -0.386391 
      6 O           5.275279    2.028491    0.250629 O.3       1 <1>        -0.386488 
      7 O          -1.386696    4.182634   -1.416374 O.3       1 <1>        -0.384104 
      8 O          -4.158047    3.248287   -1.381347 O.3       1 <1>        -0.386401 
      9 O          -4.821145    1.262650    0.647095 O.3       1 <1>        -0.386488 
     10 O           5.397632   -2.167198   -0.322152 O.3       1 <1>        -0.392366 
     11 O          -1.515249   -1.097235    2.167908 O.3       1 <1>        -0.392366 
     12 C           1.528378    1.310402   -0.030542 C.3       1 <1>         0.140626 
     13 C           2.848691    2.105397   -0.187467 C.3       1 <1>         0.114429 
     14 C          -0.731019    2.179636   -0.102790 C.3       1 <1>         0.188544 
     15 C           4.036425    1.311102    0.414324 C.3       1 <1>         0.111906 
     16 C          -1.767773    2.839541   -1.050722 C.3       1 <1>         0.134126 
     17 C           1.710459   -0.132078   -0.581113 C.3       1 <1>         0.188639 
     18 C          -3.186727    2.796088   -0.418383 C.3       1 <1>         0.114061 
     19 C           4.098351   -0.102763   -0.217284 C.3       1 <1>         0.113005 
     20 C          -3.521519    1.348036    0.032149 C.3       1 <1>         0.111896 
     21 C          -2.406587    0.830611    0.973878 C.3       1 <1>         0.113005 
     22 C           5.243124   -0.937389    0.412174 C.3       1 <1>         0.073015 
     23 C          -2.639865   -0.641095    1.394982 C.3       1 <1>         0.073015 
     24 C           0.683062   -2.309210   -0.741065 C.3       1 <1>         0.075791 
     25 C          -0.648241   -3.008606   -0.446592 C.ar      1 <1>        -0.021825 
     26 C          -0.852122   -3.687187    0.769015 C.ar      1 <1>        -0.056388 
     27 C          -1.742859   -2.969918   -1.449334 C.ar      1 <1>        -0.056388 
     28 C          -2.149002   -4.348023    1.051144 C.ar      1 <1>        -0.061430 
     29 C          -2.972060   -3.598326   -1.184473 C.ar      1 <1>        -0.061430 
     30 C          -3.181411   -4.303730    0.101647 C.ar      1 <1>        -0.061740 
     31 H           1.316617    1.244003    1.050022 H         1 <1>         0.067477 
     32 H           3.023053    2.273821   -1.264315 H         1 <1>         0.064768 
     33 H          -0.586108    2.819524    0.784498 H         1 <1>         0.093754 
     34 H           3.861605    1.204301    1.497292 H         1 <1>         0.064673 
     35 H          -1.787949    2.244882   -1.977519 H         1 <1>         0.067095 
     36 H           1.818044   -0.066795   -1.677240 H         1 <1>         0.093761 
     37 H          -3.198822    3.462365    0.461034 H         1 <1>         0.064758 
     38 H           4.299878   -0.026563   -1.298949 H         1 <1>         0.064668 
     39 H          -3.544928    0.711823   -0.867871 H         1 <1>         0.064673 
     40 H          -2.352893    1.437431    1.893113 H         1 <1>         0.064668 
     41 H           6.186784   -0.367705    0.372335 H         1 <1>         0.058370 
     42 H           4.994158   -1.142928    1.466558 H         1 <1>         0.058370 
     43 H          -3.551005   -0.728701    2.007260 H         1 <1>         0.058370 
     44 H          -2.763845   -1.272093    0.501202 H         1 <1>         0.058370 
     45 H           3.509061    3.897485    0.430223 H         1 <1>         0.210005 
     46 H           5.511342    2.173601   -0.660109 H         1 <1>         0.210004 
     47 H          -1.329303    4.777259   -0.676375 H         1 <1>         0.210110 
     48 H          -5.047961    3.218174   -1.041772 H         1 <1>         0.210005 
     49 H          -4.900355    1.781734    1.440890 H         1 <1>         0.210004 
     50 H           0.863670   -2.339426   -1.827244 H         1 <1>         0.061085 
     51 H           1.503447   -2.844061   -0.235828 H         1 <1>         0.061085 
     52 H           6.084744   -2.728393    0.025442 H         1 <1>         0.209508 
     53 H          -0.703732   -1.013680    1.669079 H         1 <1>         0.209508 
     54 H          -0.063496   -3.727033    1.512325 H         1 <1>         0.062101 
     55 H          -1.595508   -2.452221   -2.390930 H         1 <1>         0.062101 
     56 H          -2.297401   -4.863627    1.994830 H         1 <1>         0.061767 
     57 H          -3.770476   -3.567570   -1.919349 H         1 <1>         0.061767 
     58 H          -4.132484   -4.784486    0.306505 H         1 <1>         0.061758 
@<TRIPOS>BOND
     1    1   12 1    
     2   14    1 1    
     3    2   14 1    
     4   21    2 1    
     5   17    3 1    
     6    3   19 1    
     7   17    4 1    
     8    4   24 1    
     9   13    5 1    
    10    5   45 1    
    11   15    6 1    
    12    6   46 1    
    13   16    7 1    
    14    7   47 1    
    15   18    8 1    
    16    8   48 1    
    17   20    9 1    
    18    9   49 1    
    19   22   10 1    
    20   10   52 1    
    21   23   11 1    
    22   11   53 1    
    23   12   13 1    
    24   12   17 1    
    25   12   31 1    
    26   13   15 1    
    27   13   32 1    
    28   14   16 1    
    29   14   33 1    
    30   15   19 1    
    31   15   34 1    
    32   18   16 1    
    33   16   35 1    
    34   17   36 1    
    35   20   18 1    
    36   18   37 1    
    37   19   22 1    
    38   19   38 1    
    39   21   20 1    
    40   20   39 1    
    41   21   23 1    
    42   21   40 1    
    43   22   41 1    
    44   22   42 1    
    45   23   43 1    
    46   23   44 1    
    47   24   25 1    
    48   24   50 1    
    49   24   51 1    
    50   25   26 2    
    51   25   27 1    
    52   26   28 1    
    53   26   54 1    
    54   27   29 2    
    55   27   55 1    
    56   28   30 2    
    57   28   56 1    
    58   29   30 1    
    59   29   57 1    
    60   30   58 1    
@<TRIPOS>SUBSTRUCTURE
     1 ****        1 TEMP              0 ****  ****    0 ROOT 
@<TRIPOS>NORMAL
@<TRIPOS>FF_PBC
FORCE_FIELD_SETUP_FEATURE Force Field Setup information
v1.0  0 0.000000 0.000000 0.000000 0.000000 0.000000 0.000000 NONE 0 0 0 0 1 0 0 0 0 0 0 0 0
