@<TRIPOS>MOLECULE
MOL004950
   47    50     1     1     0
SMALL
GASTEIGER


@<TRIPOS>ATOM
      1 C           4.378093    2.233544    0.571316 C.3       1 <1>         0.070796 
      2 C           4.701968    1.109324   -0.450627 C.3       1 <1>        -0.019621 
      3 C           3.663186   -0.038250   -0.392205 C.3       1 <1>        -0.020161 
      4 C           2.240058    0.513806   -0.255584 C.ar      1 <1>         0.013363 
      5 C           2.035884    1.945339    0.062125 C.ar      1 <1>         0.084986 
      6 O           3.116082    2.815909    0.211904 O.3       1 <1>        -0.338376 
      7 C           1.144402   -0.361827   -0.427748 C.ar      1 <1>         0.091047 
      8 C          -0.252181    0.166078   -0.272921 C.ar      1 <1>         0.036703 
      9 C          -0.421531    1.534496    0.053432 C.ar      1 <1>         0.098534 
     10 C           0.746030    2.429276    0.208933 C.ar      1 <1>         0.000010 
     11 C          -1.531034   -0.633012   -0.424267 C.2       1 <1>        -0.036075 
     12 C          -2.720872   -0.072591   -0.187526 C.2       1 <1>         0.057145 
     13 C          -2.789525    1.350694    0.177764 C.2       1 <1>         0.299461 
     14 O          -1.686986    2.094751    0.246762 O.3       1 <1>        -0.273171 
     15 C          -3.991788   -0.890369   -0.300469 C.ar      1 <1>         0.017745 
     16 C          -4.070993   -2.257336    0.281678 C.ar      1 <1>         0.082884 
     17 C          -5.229886   -3.021789    0.125333 C.ar      1 <1>        -0.001570 
     18 C          -6.405992   -2.466460   -0.589974 C.ar      1 <1>         0.075055 
     19 C          -6.344126   -1.170867   -1.106307 C.ar      1 <1>        -0.031201 
     20 C          -5.108423   -0.365578   -0.966002 C.ar      1 <1>        -0.048954 
     21 C           5.437060    3.363982    0.463609 C.3       1 <1>        -0.035575 
     22 C           4.317657    1.723087    2.038979 C.3       1 <1>        -0.035575 
     23 O           1.471303   -1.696569   -0.726540 O.3       1 <1>        -0.346887 
     24 C           0.653231   -2.823040   -1.059167 C.3       1 <1>         0.043065 
     25 O          -2.998369   -2.791531    0.993079 O.3       1 <1>        -0.359141 
     26 O          -7.573527   -3.213962   -0.750125 O.3       1 <1>        -0.359750 
     27 O          -3.862353    1.875563    0.424914 O.2       1 <1>        -0.258804 
     28 H           5.713690    0.706603   -0.283454 H         1 <1>         0.029604 
     29 H           4.669849    1.551580   -1.459441 H         1 <1>         0.029604 
     30 H           3.745171   -0.657607   -1.299990 H         1 <1>         0.031568 
     31 H           3.857388   -0.687899    0.475747 H         1 <1>         0.031568 
     32 H           0.591934    3.477075    0.440688 H         1 <1>         0.066964 
     33 H          -1.581152   -1.666541   -0.729433 H         1 <1>         0.063295 
     34 H          -5.260801   -4.022199    0.542824 H         1 <1>         0.066920 
     35 H          -7.208021   -0.756000   -1.616211 H         1 <1>         0.064340 
     36 H          -5.075781    0.628992   -1.395377 H         1 <1>         0.062523 
     37 H           5.471432    3.758085   -0.563687 H         1 <1>         0.025736 
     38 H           6.435999    2.988622    0.732155 H         1 <1>         0.025736 
     39 H           5.177053    4.193052    1.139124 H         1 <1>         0.025736 
     40 H           4.122407    2.568783    2.714870 H         1 <1>         0.025736 
     41 H           3.513542    0.989830    2.190151 H         1 <1>         0.025736 
     42 H           5.274470    1.260977    2.323192 H         1 <1>         0.025736 
     43 H           1.337495   -3.655946   -1.276393 H         1 <1>         0.052870 
     44 H           0.064103   -2.636076   -1.968719 H         1 <1>         0.052870 
     45 H           0.027465   -3.130122   -0.208811 H         1 <1>         0.052870 
     46 H          -2.686740   -2.185782    1.657650 H         1 <1>         0.217339 
     47 H          -7.500856   -4.106737   -0.432192 H         1 <1>         0.217315 
@<TRIPOS>BOND
     1    1    2 1    
     2    1    6 1    
     3    1   21 1    
     4    1   22 1    
     5    2    3 1    
     6    2   28 1    
     7    2   29 1    
     8    3    4 1    
     9    3   30 1    
    10    3   31 1    
    11    4    5 1    
    12    4    7 2    
    13    5    6 1    
    14    5   10 2    
    15    7    8 1    
    16    7   23 1    
    17    8    9 2    
    18    8   11 1    
    19    9   10 1    
    20    9   14 1    
    21   10   32 1    
    22   11   12 2    
    23   11   33 1    
    24   12   13 1    
    25   12   15 1    
    26   13   14 1    
    27   13   27 2    
    28   15   16 1    
    29   15   20 2    
    30   16   17 2    
    31   16   25 1    
    32   17   18 1    
    33   17   34 1    
    34   18   19 2    
    35   18   26 1    
    36   19   20 1    
    37   19   35 1    
    38   20   36 1    
    39   21   37 1    
    40   21   38 1    
    41   21   39 1    
    42   22   40 1    
    43   22   41 1    
    44   22   42 1    
    45   23   24 1    
    46   24   43 1    
    47   24   44 1    
    48   24   45 1    
    49   25   46 1    
    50   26   47 1    
@<TRIPOS>SUBSTRUCTURE
     1 ****        1 TEMP              0 ****  ****    0 ROOT 
@<TRIPOS>NORMAL
@<TRIPOS>FF_PBC
FORCE_FIELD_SETUP_FEATURE Force Field Setup information
v1.0  0 0.000000 0.000000 0.000000 0.000000 0.000000 0.000000 NONE 0 0 0 0 1 0 0 0 0 0 0 0 0
