@<TRIPOS>MOLECULE
MOL012955
   72    75     1     1     0
SMALL
GASTEIGER


@<TRIPOS>ATOM
      1 O           8.071839   -0.843195    1.312459 O.3       1 <1>        -0.391474 
      2 C          -0.419608    0.808752   -0.614771 C.3       1 <1>        -0.025885 
      3 C           0.227664   -0.600287   -0.509911 C.3       1 <1>        -0.031972 
      4 C           1.762152   -0.633873   -0.763945 C.3       1 <1>        -0.030653 
      5 C           2.487395    0.297129    0.252820 C.3       1 <1>        -0.028547 
      6 C          -1.917713    0.419488   -0.366975 C.3       1 <1>        -0.032768 
      7 C           0.270907    1.660819    0.495070 C.3       1 <1>        -0.046813 
      8 C           4.051865    0.316748    0.038590 C.3       1 <1>        -0.007820 
      9 C          -0.655173   -1.484959   -1.413900 C.3       1 <1>        -0.049160 
     10 C           1.815963    1.708862    0.304725 C.3       1 <1>        -0.048644 
     11 C          -2.080182   -0.900291   -1.189882 C.3       1 <1>        -0.049187 
     12 C           2.288699   -2.082206   -0.595706 C.3       1 <1>        -0.031102 
     13 C          -3.054525    1.456711   -0.667798 C.3       1 <1>        -0.040264 
     14 C          -0.270109    1.476307   -2.022098 C.3       1 <1>        -0.059038 
     15 C           4.576541   -1.103580   -0.169052 C.2       1 <1>        -0.064841 
     16 C           4.729258    0.928516    1.311350 C.3       1 <1>        -0.041314 
     17 C           3.783676   -2.147696   -0.453590 C.2       1 <1>        -0.083874 
     18 C           4.455646    1.157973   -1.216650 C.3       1 <1>        -0.055578 
     19 C           6.076925   -1.323334   -0.047619 C.3       1 <1>        -0.005079 
     20 C           6.270053    0.761197    1.359069 C.3       1 <1>        -0.025766 
     21 C          -4.486767    0.854560   -0.468473 C.3       1 <1>        -0.046743 
     22 C           6.637313   -0.735908    1.269346 C.3       1 <1>         0.058951 
     23 C          -2.909074    2.774339    0.150118 C.3       1 <1>        -0.062137 
     24 C          -4.813179    0.376367    0.973868 C.3       1 <1>        -0.034275 
     25 C          -6.284098    0.034805    1.079161 C.2       1 <1>        -0.085278 
     26 C          -6.816172   -1.194026    0.972239 C.2       1 <1>        -0.079617 
     27 C          -8.303794   -1.422797    1.136738 C.3       1 <1>        -0.044050 
     28 C          -5.996571   -2.433479    0.686836 C.3       1 <1>        -0.044050 
     29 H           0.076518   -0.978185    0.517854 H         1 <1>         0.030896 
     30 H           1.969129   -0.325380   -1.796243 H         1 <1>         0.030949 
     31 H           2.294598   -0.161541    1.237304 H         1 <1>         0.031195 
     32 H          -1.997624    0.170707    0.703566 H         1 <1>         0.030870 
     33 H           0.054966    1.240196    1.490713 H         1 <1>         0.027078 
     34 H          -0.100148    2.694203    0.493024 H         1 <1>         0.027078 
     35 H          -0.593274   -2.552943   -1.145406 H         1 <1>         0.026828 
     36 H          -0.330674   -1.378988   -2.461804 H         1 <1>         0.026828 
     37 H           2.022919    2.278117   -0.609188 H         1 <1>         0.026846 
     38 H           2.224436    2.288487    1.147144 H         1 <1>         0.026846 
     39 H          -2.546677   -0.716957   -2.171417 H         1 <1>         0.026828 
     40 H          -2.714574   -1.617572   -0.643731 H         1 <1>         0.026828 
     41 H           1.975890   -2.688869   -1.461446 H         1 <1>         0.031025 
     42 H           1.877650   -2.548537    0.313590 H         1 <1>         0.031025 
     43 H          -3.004279    1.731484   -1.735197 H         1 <1>         0.030105 
     44 H          -0.651405    2.505895   -1.985668 H         1 <1>         0.023524 
     45 H           0.765845    1.536532   -2.373853 H         1 <1>         0.023524 
     46 H          -0.835697    0.945755   -2.799632 H         1 <1>         0.023524 
     47 H           4.329523    0.442145    2.215931 H         1 <1>         0.027446 
     48 H           4.517207    2.005669    1.389988 H         1 <1>         0.027446 
     49 H           4.212287   -3.141801   -0.591789 H         1 <1>         0.057190 
     50 H           4.252482    2.227515   -1.069576 H         1 <1>         0.023820 
     51 H           5.525081    1.088199   -1.446685 H         1 <1>         0.023820 
     52 H           3.923042    0.824765   -2.116509 H         1 <1>         0.023820 
     53 H           6.338633   -2.393316   -0.058346 H         1 <1>         0.033510 
     54 H           6.601699   -0.869642   -0.899883 H         1 <1>         0.033510 
     55 H           6.760777    1.316069    0.545360 H         1 <1>         0.029039 
     56 H           6.659167    1.163050    2.309979 H         1 <1>         0.029039 
     57 H          -4.649387    0.009399   -1.154765 H         1 <1>         0.027088 
     58 H          -5.228036    1.622411   -0.746985 H         1 <1>         0.027088 
     59 H           6.193156   -1.268663    2.130176 H         1 <1>         0.059621 
     60 H          -2.656284    2.563892    1.199876 H         1 <1>         0.023250 
     61 H          -2.131961    3.421935   -0.276798 H         1 <1>         0.023250 
     62 H          -3.841107    3.359297    0.131036 H         1 <1>         0.023250 
     63 H          -4.605368    1.178261    1.698573 H         1 <1>         0.030748 
     64 H          -4.193133   -0.484172    1.261252 H         1 <1>         0.030748 
     65 H           8.381784   -1.742812    1.281476 H         1 <1>         0.209789 
     66 H          -6.948711    0.881865    1.257161 H         1 <1>         0.057145 
     67 H          -8.850730   -0.515817    1.435672 H         1 <1>         0.027427 
     68 H          -8.726943   -1.779268    0.185537 H         1 <1>         0.027427 
     69 H          -8.470808   -2.189557    1.908321 H         1 <1>         0.027427 
     70 H          -6.615487   -3.213148    0.217384 H         1 <1>         0.027427 
     71 H          -5.163445   -2.229432    0.000376 H         1 <1>         0.027427 
     72 H          -5.598068   -2.828793    1.632905 H         1 <1>         0.027427 
@<TRIPOS>BOND
     1   22    1 1    
     2    1   65 1    
     3    3    2 1    
     4    2    6 1    
     5    7    2 1    
     6    2   14 1    
     7    4    3 1    
     8    3    9 1    
     9    3   29 1    
    10    5    4 1    
    11   12    4 1    
    12    4   30 1    
    13    8    5 1    
    14    5   10 1    
    15    5   31 1    
    16   11    6 1    
    17    6   13 1    
    18    6   32 1    
    19   10    7 1    
    20    7   33 1    
    21    7   34 1    
    22   15    8 1    
    23    8   16 1    
    24    8   18 1    
    25    9   11 1    
    26    9   35 1    
    27    9   36 1    
    28   10   37 1    
    29   10   38 1    
    30   11   39 1    
    31   11   40 1    
    32   17   12 1    
    33   12   41 1    
    34   12   42 1    
    35   13   21 1    
    36   13   23 1    
    37   13   43 1    
    38   14   44 1    
    39   14   45 1    
    40   14   46 1    
    41   15   17 2    
    42   19   15 1    
    43   16   20 1    
    44   16   47 1    
    45   16   48 1    
    46   17   49 1    
    47   18   50 1    
    48   18   51 1    
    49   18   52 1    
    50   19   22 1    
    51   19   53 1    
    52   19   54 1    
    53   20   22 1    
    54   20   55 1    
    55   20   56 1    
    56   21   24 1    
    57   21   57 1    
    58   21   58 1    
    59   22   59 1    
    60   23   60 1    
    61   23   61 1    
    62   23   62 1    
    63   24   25 1    
    64   24   63 1    
    65   24   64 1    
    66   25   26 2    
    67   25   66 1    
    68   26   27 1    
    69   26   28 1    
    70   27   67 1    
    71   27   68 1    
    72   27   69 1    
    73   28   70 1    
    74   28   71 1    
    75   28   72 1    
@<TRIPOS>SUBSTRUCTURE
     1 ****        2 TEMP              0 ****  ****    0 ROOT 
@<TRIPOS>NORMAL
@<TRIPOS>FF_PBC
FORCE_FIELD_SETUP_FEATURE Force Field Setup information
v1.0  0 0.000000 0.000000 0.000000 0.000000 0.000000 0.000000 NONE 0 0 0 0 1 0 0 0 0 0 0 0 0
