@<TRIPOS>MOLECULE
MOL012963
   79    82     1     1     0
SMALL
GASTEIGER


@<TRIPOS>ATOM
      1 O           2.068032    1.300218   -1.241578 O.3       1 <1>        -0.340042 
      2 O           0.040538   -0.551866   -0.580549 O.3       1 <1>        -0.337749 
      3 O          -1.606772    2.777138    0.034820 O.3       1 <1>        -0.340512 
      4 O           3.716041    1.019377    0.279257 O.3       1 <1>        -0.340520 
      5 O          -1.946271   -1.666003    0.059769 O.3       1 <1>        -0.340519 
      6 O          -2.706052    0.838299   -0.465509 O.3       1 <1>        -0.344048 
      7 O           1.926347    3.909704    0.058794 O.3       1 <1>        -0.386478 
      8 O           3.226030   -0.892718   -2.903636 O.3       1 <1>        -0.384104 
      9 O           0.702747   -2.567425   -2.423289 O.3       1 <1>        -0.384104 
     10 O           6.041221   -1.427640   -2.261230 O.3       1 <1>        -0.386401 
     11 O           0.988082   -4.673785   -0.461097 O.3       1 <1>        -0.386401 
     12 O           6.856075   -0.944967    0.489628 O.3       1 <1>        -0.386488 
     13 O          -0.121210   -4.141250    2.155729 O.3       1 <1>        -0.386488 
     14 O          -1.861570    5.295170    1.398212 O.3       1 <1>        -0.392366 
     15 O           4.339594    1.408671    3.021763 O.3       1 <1>        -0.392366 
     16 O          -2.888437   -1.016130    2.776210 O.3       1 <1>        -0.392366 
     17 C           1.013816    1.624785   -0.306756 C.3       1 <1>         0.120942 
     18 C          -0.265909    0.854039   -0.722865 C.3       1 <1>         0.140990 
     19 C           0.766371    3.154342   -0.345606 C.3       1 <1>         0.112270 
     20 C          -0.462767    3.491007    0.537364 C.3       1 <1>         0.113015 
     21 C          -1.483007    1.342219    0.107578 C.3       1 <1>         0.188649 
     22 C           2.990976    0.314257   -0.744698 C.3       1 <1>         0.188437 
     23 C          -0.999665   -1.453113   -1.005752 C.3       1 <1>         0.188544 
     24 C           3.935809   -0.162898   -1.877973 C.3       1 <1>         0.134124 
     25 C          -0.309220   -2.783256   -1.414654 C.3       1 <1>         0.134126 
     26 C           5.092931   -1.002451   -1.264696 C.3       1 <1>         0.114061 
     27 C           0.356958   -3.412816   -0.164422 C.3       1 <1>         0.114061 
     28 C           5.783605   -0.205598   -0.121783 C.3       1 <1>         0.111896 
     29 C          -0.691598   -3.553283    0.972072 C.3       1 <1>         0.111896 
     30 C           4.729319    0.230551    0.928827 C.3       1 <1>         0.113005 
     31 C          -1.342896   -2.176270    1.267953 C.3       1 <1>         0.113005 
     32 C          -0.777863    5.008389    0.493747 C.3       1 <1>         0.073015 
     33 C           5.361121    1.090465    2.055418 C.3       1 <1>         0.073015 
     34 C          -2.424767   -2.318307    2.372757 C.3       1 <1>         0.073015 
     35 C          -3.883678    1.248457    0.259375 C.3       1 <1>         0.075791 
     36 C          -5.103536    0.601088   -0.401009 C.ar      1 <1>        -0.021825 
     37 C          -6.031775    1.367967   -1.137387 C.ar      1 <1>        -0.056388 
     38 C          -5.309333   -0.859310   -0.262184 C.ar      1 <1>        -0.056388 
     39 C          -7.201130    0.713525   -1.766976 C.ar      1 <1>        -0.061430 
     40 C          -6.420472   -1.479782   -0.861871 C.ar      1 <1>        -0.061430 
     41 C          -7.390864   -0.669513   -1.633969 C.ar      1 <1>        -0.061740 
     42 H           1.264092    1.366016    0.735625 H         1 <1>         0.065147 
     43 H          -0.455974    1.090909   -1.781836 H         1 <1>         0.067487 
     44 H           0.545716    3.442833   -1.385607 H         1 <1>         0.064683 
     45 H          -0.269726    3.225605    1.590788 H         1 <1>         0.064668 
     46 H          -1.369180    0.992763    1.148572 H         1 <1>         0.093761 
     47 H           2.468551   -0.563759   -0.334811 H         1 <1>         0.093753 
     48 H          -1.536737   -1.079097   -1.895214 H         1 <1>         0.093754 
     49 H           4.358167    0.735206   -2.355321 H         1 <1>         0.067095 
     50 H          -1.076714   -3.478391   -1.794262 H         1 <1>         0.067095 
     51 H           4.662827   -1.924108   -0.843115 H         1 <1>         0.064758 
     52 H           1.161087   -2.742575    0.176315 H         1 <1>         0.064758 
     53 H           6.230856    0.703080   -0.555657 H         1 <1>         0.064673 
     54 H          -1.485690   -4.236638    0.632242 H         1 <1>         0.064673 
     55 H           4.277352   -0.654329    1.407734 H         1 <1>         0.064668 
     56 H          -0.581627   -1.475651    1.650614 H         1 <1>         0.064668 
     57 H           0.113972    5.586476    0.792564 H         1 <1>         0.058370 
     58 H          -1.056123    5.287577   -0.536324 H         1 <1>         0.058370 
     59 H           2.244102    3.682942    0.927100 H         1 <1>         0.210004 
     60 H           6.175202    0.529736    2.547006 H         1 <1>         0.058370 
     61 H           5.777245    2.014892    1.619414 H         1 <1>         0.058370 
     62 H          -3.260975   -2.922127    1.982578 H         1 <1>         0.058370 
     63 H          -1.998001   -2.833901    3.250531 H         1 <1>         0.058370 
     64 H           2.793386   -1.680281   -2.584461 H         1 <1>         0.210110 
     65 H           0.352278   -2.206417   -3.232388 H         1 <1>         0.210110 
     66 H          -3.844312    0.902815    1.302199 H         1 <1>         0.061085 
     67 H          -3.987821    2.344022    0.261271 H         1 <1>         0.061085 
     68 H           6.480193   -0.704019   -2.695693 H         1 <1>         0.210005 
     69 H           0.377640   -5.342817   -0.753262 H         1 <1>         0.210005 
     70 H           6.576490   -1.772401    0.868801 H         1 <1>         0.210004 
     71 H           0.603953   -3.636068    2.507651 H         1 <1>         0.210004 
     72 H          -2.120013    6.211958    1.394851 H         1 <1>         0.209508 
     73 H           4.657152    1.954981    3.734617 H         1 <1>         0.209508 
     74 H          -3.554302   -1.054321    3.457305 H         1 <1>         0.209508 
     75 H          -5.900287    2.438355   -1.249490 H         1 <1>         0.062101 
     76 H          -4.598811   -1.451283    0.302793 H         1 <1>         0.062101 
     77 H          -7.910568    1.311306   -2.331470 H         1 <1>         0.061767 
     78 H          -6.568206   -2.549694   -0.762474 H         1 <1>         0.061767 
     79 H          -8.248909   -1.147682   -2.097166 H         1 <1>         0.061758 
@<TRIPOS>BOND
     1   17    1 1    
     2    1   22 1    
     3    2   18 1    
     4   23    2 1    
     5    3   20 1    
     6   21    3 1    
     7   22    4 1    
     8    4   30 1    
     9    5   23 1    
    10   31    5 1    
    11   21    6 1    
    12    6   35 1    
    13   19    7 1    
    14    7   59 1    
    15   24    8 1    
    16    8   64 1    
    17   25    9 1    
    18    9   65 1    
    19   26   10 1    
    20   10   68 1    
    21   27   11 1    
    22   11   69 1    
    23   28   12 1    
    24   12   70 1    
    25   29   13 1    
    26   13   71 1    
    27   32   14 1    
    28   14   72 1    
    29   33   15 1    
    30   15   73 1    
    31   34   16 1    
    32   16   74 1    
    33   18   17 1    
    34   17   19 1    
    35   17   42 1    
    36   18   21 1    
    37   18   43 1    
    38   19   20 1    
    39   19   44 1    
    40   20   32 1    
    41   20   45 1    
    42   21   46 1    
    43   22   24 1    
    44   22   47 1    
    45   23   25 1    
    46   23   48 1    
    47   24   26 1    
    48   24   49 1    
    49   27   25 1    
    50   25   50 1    
    51   26   28 1    
    52   26   51 1    
    53   29   27 1    
    54   27   52 1    
    55   30   28 1    
    56   28   53 1    
    57   31   29 1    
    58   29   54 1    
    59   30   33 1    
    60   30   55 1    
    61   31   34 1    
    62   31   56 1    
    63   32   57 1    
    64   32   58 1    
    65   33   60 1    
    66   33   61 1    
    67   34   62 1    
    68   34   63 1    
    69   35   36 1    
    70   35   66 1    
    71   35   67 1    
    72   36   37 2    
    73   36   38 1    
    74   37   39 1    
    75   37   75 1    
    76   38   40 2    
    77   38   76 1    
    78   39   41 2    
    79   39   77 1    
    80   40   41 1    
    81   40   78 1    
    82   41   79 1    
@<TRIPOS>SUBSTRUCTURE
     1 ****        1 TEMP              0 ****  ****    0 ROOT 
@<TRIPOS>NORMAL
@<TRIPOS>FF_PBC
FORCE_FIELD_SETUP_FEATURE Force Field Setup information
v1.0  0 0.000000 0.000000 0.000000 0.000000 0.000000 0.000000 NONE 0 0 0 0 1 0 0 0 0 0 0 0 0
