@<TRIPOS>MOLECULE
MOL000895
   39    39     1     1     0
SMALL
GASTEIGER


@<TRIPOS>ATOM
      1 C           4.294827   -0.081879    0.793475 C.2       1 <1>        -0.080539 
      2 C           4.336384    1.204123    0.426638 C.2       1 <1>        -0.054629 
      3 C           3.173475    1.770835   -0.279174 C.2       1 <1>        -0.062781 
      4 C           1.983645    1.158820   -0.260914 C.2       1 <1>        -0.080132 
      5 C           1.765690   -0.123563    0.517414 C.3       1 <1>        -0.016577 
      6 C           3.091265   -0.939115    0.490810 C.3       1 <1>        -0.027690 
      7 C           0.512015   -2.398812    0.481727 C.3       1 <1>        -0.061864 
      8 C           0.516979   -0.917855   -0.002440 C.3       1 <1>        -0.037046 
      9 C          -0.803066   -0.201249    0.439487 C.3       1 <1>        -0.046471 
     10 C          -2.088415   -0.707365   -0.277621 C.3       1 <1>        -0.034266 
     11 C          -3.291997    0.149273    0.049118 C.2       1 <1>        -0.085277 
     12 C          -4.454124    0.128221   -0.625224 C.2       1 <1>        -0.079617 
     13 C          -5.597201    1.046980   -0.248867 C.3       1 <1>        -0.044050 
     14 C          -4.729456   -0.789779   -1.797328 C.3       1 <1>        -0.044050 
     15 C           5.549180    2.052919    0.721575 C.3       1 <1>        -0.040014 
     16 H           5.149216   -0.526771    1.306355 H         1 <1>         0.057482 
     17 H           3.294277    2.707239   -0.825716 H         1 <1>         0.061709 
     18 H           1.174986    1.628053   -0.821078 H         1 <1>         0.057507 
     19 H           1.584574    0.163385    1.566798 H         1 <1>         0.034857 
     20 H           3.242823   -1.385064   -0.504616 H         1 <1>         0.031323 
     21 H           3.057490   -1.742632    1.243930 H         1 <1>         0.031323 
     22 H           1.373356   -2.956685    0.086192 H         1 <1>         0.023260 
     23 H          -0.379840   -2.936909    0.134383 H         1 <1>         0.023260 
     24 H           0.536220   -2.438687    1.581499 H         1 <1>         0.023260 
     25 H           0.570219   -0.932914   -1.104513 H         1 <1>         0.030393 
     26 H          -0.734674    0.875577    0.226626 H         1 <1>         0.027097 
     27 H          -0.930279   -0.311584    1.528833 H         1 <1>         0.027097 
     28 H          -2.335322   -1.733550    0.030522 H         1 <1>         0.030749 
     29 H          -1.905192   -0.686956   -1.363487 H         1 <1>         0.030749 
     30 H          -3.194651    0.827270    0.897840 H         1 <1>         0.057145 
     31 H          -5.338660    1.754594    0.553350 H         1 <1>         0.027427 
     32 H          -5.900986    1.630591   -1.131005 H         1 <1>         0.027427 
     33 H          -6.455032    0.446469    0.089221 H         1 <1>         0.027427 
     34 H          -4.019600   -1.623541   -1.885334 H         1 <1>         0.027427 
     35 H          -5.733313   -1.229189   -1.696405 H         1 <1>         0.027427 
     36 H          -4.697415   -0.202258   -2.726938 H         1 <1>         0.027427 
     37 H           6.376880    1.746663    0.064520 H         1 <1>         0.027744 
     38 H           5.341746    3.120347    0.553315 H         1 <1>         0.027744 
     39 H           5.858466    1.924462    1.770137 H         1 <1>         0.027744 
@<TRIPOS>BOND
     1    1    2 2    
     2    1    6 1    
     3    1   16 1    
     4    2    3 1    
     5    2   15 1    
     6    3    4 2    
     7    3   17 1    
     8    4    5 1    
     9    4   18 1    
    10    5    6 1    
    11    5    8 1    
    12    5   19 1    
    13    6   20 1    
    14    6   21 1    
    15    8    7 1    
    16    7   22 1    
    17    7   23 1    
    18    7   24 1    
    19    8    9 1    
    20    8   25 1    
    21    9   10 1    
    22    9   26 1    
    23    9   27 1    
    24   10   11 1    
    25   10   28 1    
    26   10   29 1    
    27   11   12 2    
    28   11   30 1    
    29   12   13 1    
    30   12   14 1    
    31   13   31 1    
    32   13   32 1    
    33   13   33 1    
    34   14   34 1    
    35   14   35 1    
    36   14   36 1    
    37   15   37 1    
    38   15   38 1    
    39   15   39 1    
@<TRIPOS>SUBSTRUCTURE
     1 ****        1 TEMP              0 ****  ****    0 ROOT 
@<TRIPOS>NORMAL
@<TRIPOS>FF_PBC
FORCE_FIELD_SETUP_FEATURE Force Field Setup information
v1.0  0 0.000000 0.000000 0.000000 0.000000 0.000000 0.000000 NONE 0 0 0 0 1 0 0 0 0 0 0 0 0
