@<TRIPOS>MOLECULE
MOL006837
   54    57     1     1     0
SMALL
GASTEIGER


@<TRIPOS>ATOM
      1 O           3.322407    0.235253   -1.862209 O.3       1 <1>        -0.361023 
      2 O           3.569372   -0.670571    1.790428 O.3       1 <1>        -0.386221 
      3 O           3.657103   -2.926847    0.170086 O.3       1 <1>        -0.386477 
      4 O          -8.905043    1.207355    2.570566 O.3       1 <1>        -0.359832 
      5 O           1.280487   -2.094663   -0.520305 O.3       1 <1>        -0.347388 
      6 O           1.788472    2.697871    0.649179 O.3       1 <1>        -0.358595 
      7 O          -2.585850    0.446341    1.109578 O.3       1 <1>        -0.307711 
      8 O          -0.459009    3.865358    1.542088 O.2       1 <1>        -0.287017 
      9 C           4.094065   -0.472249    0.460428 C.3       1 <1>         0.113849 
     10 C           4.538115   -1.835996   -0.142502 C.3       1 <1>         0.112059 
     11 C           3.081611    0.303973   -0.443285 C.3       1 <1>         0.117272 
     12 C           4.821816   -1.697832   -1.660518 C.3       1 <1>         0.111744 
     13 C           3.588975   -1.079754   -2.381260 C.3       1 <1>         0.110816 
     14 C           1.594953    0.287061   -0.001987 C.ar      1 <1>         0.044162 
     15 C           3.796225   -0.940659   -3.913078 C.3       1 <1>         0.072938 
     16 C           0.995461    1.552478    0.516489 C.ar      1 <1>         0.094055 
     17 C           0.751298   -0.880442   -0.070308 C.ar      1 <1>         0.086487 
     18 C          -0.378510    1.588399    0.873019 C.ar      1 <1>         0.082300 
     19 C          -0.678617   -0.794352    0.329741 C.ar      1 <1>         0.000072 
     20 C          -1.230735    0.391454    0.768654 C.ar      1 <1>         0.098831 
     21 C          -1.074091    2.822701    1.381011 C.2       1 <1>         0.193519 
     22 C          -7.532856    1.281947    2.318582 C.ar      1 <1>         0.072619 
     23 C          -3.192451    1.578956    1.508366 C.2       1 <1>         0.093865 
     24 C          -2.509866    2.724819    1.663046 C.2       1 <1>         0.016919 
     25 C          -4.680518    1.501969    1.780132 C.ar      1 <1>         0.005751 
     26 C          -6.951062    2.560676    1.850257 C.ar      1 <1>        -0.031304 
     27 C          -6.685803    0.166899    2.496685 C.ar      1 <1>        -0.031304 
     28 C          -5.576177    2.671477    1.589524 C.ar      1 <1>        -0.049682 
     29 C          -5.234147    0.282438    2.217587 C.ar      1 <1>        -0.049682 
     30 C           0.426090   -3.075425   -1.143264 C.3       1 <1>         0.043042 
     31 H           3.347920    0.142875    2.233659 H         1 <1>         0.210016 
     32 H           2.752758   -2.724164   -0.037074 H         1 <1>         0.210004 
     33 H          -9.189260    0.376942    2.935436 H         1 <1>         0.217313 
     34 H           1.329369    3.466945    0.975697 H         1 <1>         0.217355 
     35 H           5.028974    0.117968    0.527654 H         1 <1>         0.064945 
     36 H           5.483472   -2.143633    0.338632 H         1 <1>         0.064684 
     37 H           3.380241    1.354911   -0.319638 H         1 <1>         0.067491 
     38 O           6.001516   -0.879087   -1.798714 O.3       1 <1>        -0.386490 
     39 H           5.023960   -2.711212   -2.049914 H         1 <1>         0.064671 
     40 H           2.723381   -1.743436   -2.282246 H         1 <1>         0.064591 
     41 O           2.517649   -0.734575   -4.547455 O.3       1 <1>        -0.392367 
     42 H           4.457830   -0.084034   -4.121322 H         1 <1>         0.058369 
     43 H           4.259005   -1.858083   -4.312878 H         1 <1>         0.058369 
     44 H          -1.328907   -1.658061    0.285308 H         1 <1>         0.066965 
     45 H          -2.986162    3.638532    2.012998 H         1 <1>         0.068219 
     46 H          -7.601864    3.414906    1.705780 H         1 <1>         0.064339 
     47 H          -7.086159   -0.781434    2.837959 H         1 <1>         0.064339 
     48 H          -5.184838    3.620046    1.237491 H         1 <1>         0.062503 
     49 H          -4.596016   -0.585163    2.356245 H         1 <1>         0.062503 
     50 H           1.065964   -3.851247   -1.590140 H         1 <1>         0.052870 
     51 H          -0.229634   -3.568190   -0.410137 H         1 <1>         0.052870 
     52 H          -0.174193   -2.616914   -1.943960 H         1 <1>         0.052870 
     53 H           6.311284   -0.792923   -2.694006 H         1 <1>         0.210004 
     54 H           2.573949   -0.605949   -5.489550 H         1 <1>         0.209508 
@<TRIPOS>BOND
     1   11    1 1    
     2    1   13 1    
     3    9    2 1    
     4    2   31 1    
     5   10    3 1    
     6    3   32 1    
     7   22    4 1    
     8    4   33 1    
     9   17    5 1    
    10    5   30 1    
    11   16    6 1    
    12    6   34 1    
    13    7   20 1    
    14   23    7 1    
    15   21    8 2    
    16    9   10 1    
    17   11    9 1    
    18    9   35 1    
    19   10   12 1    
    20   10   36 1    
    21   14   11 1    
    22   11   37 1    
    23   13   12 1    
    24   12   38 1    
    25   12   39 1    
    26   13   15 1    
    27   13   40 1    
    28   16   14 1    
    29   17   14 2    
    30   15   41 1    
    31   15   42 1    
    32   15   43 1    
    33   18   16 2    
    34   19   17 1    
    35   20   18 1    
    36   21   18 1    
    37   20   19 2    
    38   19   44 1    
    39   24   21 1    
    40   26   22 1    
    41   22   27 2    
    42   23   24 2    
    43   25   23 1    
    44   24   45 1    
    45   28   25 1    
    46   25   29 2    
    47   26   28 2    
    48   26   46 1    
    49   27   29 1    
    50   27   47 1    
    51   28   48 1    
    52   29   49 1    
    53   30   50 1    
    54   30   51 1    
    55   30   52 1    
    56   38   53 1    
    57   41   54 1    
@<TRIPOS>SUBSTRUCTURE
     1 ****        4 TEMP              0 ****  ****    0 ROOT 
@<TRIPOS>NORMAL
@<TRIPOS>FF_PBC
FORCE_FIELD_SETUP_FEATURE Force Field Setup information
v1.0  0 0.000000 0.000000 0.000000 0.000000 0.000000 0.000000 NONE 0 0 0 0 1 0 0 0 0 0 0 0 0
