@<TRIPOS>MOLECULE
MOL005014
   90    94     1     1     0
SMALL
GASTEIGER


@<TRIPOS>ATOM
      1 O           1.183982    0.417626   -2.510258 O.3       1 <1>        -0.337746 
      2 O           0.181245    2.054862   -1.351766 O.3       1 <1>        -0.345676 
      3 O           2.734760   -2.420624   -4.284250 O.3       1 <1>        -0.340158 
      4 O           0.237157    0.869258    1.335153 O.3       1 <1>        -0.381218 
      5 O          -1.682189   -0.931061   -1.060845 O.3       1 <1>        -0.383740 
      6 O           1.653840    0.684995   -5.284194 O.3       1 <1>        -0.386391 
      7 O           3.055007   -1.849698   -2.133234 O.3       1 <1>        -0.312540 
      8 O          -0.082856   -2.570168   -5.230650 O.3       1 <1>        -0.386488 
      9 O          -3.275578    0.795629    0.108594 O.3       1 <1>        -0.308829 
     10 O           3.984985   -3.659228   -6.635964 O.3       1 <1>        -0.392366 
     11 O          -5.375403    0.367321   -0.336838 O.2       1 <1>        -0.259877 
     12 O           6.152894    3.554178    2.434566 O.2       1 <1>        -0.287193 
     13 O           6.674390    0.045377   -3.020908 O.3       1 <1>        -0.359749 
     14 C          -0.842551    0.938155    0.377815 C.3       1 <1>         0.143333 
     15 C           1.208450   -0.743390   -3.359332 C.3       1 <1>         0.141013 
     16 C          -0.545736   -0.095235   -0.753310 C.3       1 <1>         0.138752 
     17 C          -0.086088    0.784228   -1.951479 C.3       1 <1>         0.188494 
     18 C           0.781467   -0.363274   -4.806139 C.3       1 <1>         0.114441 
     19 C           0.885927   -1.615007   -5.711891 C.3       1 <1>         0.111906 
     20 C           2.660176   -1.284571   -3.397715 C.3       1 <1>         0.194008 
     21 C          -0.821799    2.293790   -0.364416 C.3       1 <1>         0.084310 
     22 C           2.354652   -2.130580   -5.646525 C.3       1 <1>         0.113017 
     23 C          -2.211478    0.732764    1.082248 C.3       1 <1>         0.090888 
     24 C           2.569811   -3.421336   -6.480776 C.3       1 <1>         0.073015 
     25 C           3.177521   -1.143741   -0.931334 C.ar      1 <1>         0.079499 
     26 C          -4.532805    0.557520    0.525410 C.2       1 <1>         0.286689 
     27 C           3.214599   -1.913495    0.332406 C.ar      1 <1>        -0.031013 
     28 C           3.297512    0.264708   -0.873003 C.ar      1 <1>        -0.031013 
     29 C           3.560821    0.208109    1.618435 C.ar      1 <1>        -0.024759 
     30 C           3.829745    0.879946    2.947317 C.2       1 <1>        -0.050956 
     31 C           3.434756   -1.263989    1.562168 C.ar      1 <1>        -0.052152 
     32 C           3.413550    0.951979    0.435654 C.ar      1 <1>        -0.052152 
     33 C          -4.926035    0.528491    1.955845 C.2       1 <1>         0.010493 
     34 C           4.725865    1.861461    3.122126 C.2       1 <1>        -0.013708 
     35 C          -6.031836   -0.114796    2.366767 C.2       1 <1>        -0.048856 
     36 C           5.644571    2.481606    2.139493 C.2       1 <1>         0.188543 
     37 C           6.320246    0.405099    0.712313 C.ar      1 <1>        -0.046025 
     38 C           5.977638    1.848340    0.807522 C.ar      1 <1>         0.051478 
     39 C           6.542358   -0.173853   -0.547739 C.ar      1 <1>        -0.031105 
     40 C           5.929004    2.650027   -0.357492 C.ar      1 <1>         0.085798 
     41 C           6.462226    0.648919   -1.781188 C.ar      1 <1>         0.075057 
     42 C           6.183795    2.030760   -1.682531 C.ar      1 <1>        -0.001470 
     43 O           5.614425    4.008488   -0.247252 O.3       1 <1>        -0.359040 
     44 C          -6.499754   -0.167573    3.809645 C.ar      1 <1>        -0.022251 
     45 C          -7.932859   -0.446537    4.069584 C.ar      1 <1>        -0.022000 
     46 C          -8.467419   -0.464388    5.367395 C.ar      1 <1>         0.105959 
     47 C          -7.566631   -0.205142    6.533288 C.ar      1 <1>         0.102471 
     48 C          -6.189533    0.024322    6.287431 C.ar      1 <1>        -0.028841 
     49 C          -5.642481    0.033432    4.915043 C.ar      1 <1>        -0.051998 
     50 O          -8.057280   -0.184958    7.846567 O.3       1 <1>        -0.357268 
     51 O          -9.839201   -0.732329    5.502958 O.3       1 <1>        -0.345331 
     52 C         -10.498746   -0.729817    6.779291 C.3       1 <1>         0.043136 
     53 H           0.170040    1.505919    2.037719 H         1 <1>         0.210476 
     54 H          -1.527147   -1.536381   -1.777754 H         1 <1>         0.210125 
     55 H           1.422220    1.033916   -6.139062 H         1 <1>         0.210005 
     56 H          -0.157054   -3.350021   -5.771599 H         1 <1>         0.210004 
     57 H           4.184214   -4.464772   -7.105027 H         1 <1>         0.209508 
     58 H           6.406893    0.579709   -3.762226 H         1 <1>         0.217315 
     59 H           0.607842   -1.568483   -2.946180 H         1 <1>         0.067490 
     60 H           0.292984   -0.739268   -0.438059 H         1 <1>         0.067462 
     61 H          -0.885119    0.923761   -2.693027 H         1 <1>         0.093755 
     62 H          -0.265388   -0.015146   -4.797831 H         1 <1>         0.064768 
     63 H           0.627988   -1.320623   -6.746749 H         1 <1>         0.064673 
     64 H           3.382799   -0.517086   -3.720266 H         1 <1>         0.094170 
     65 H          -0.538844    3.144258    0.276257 H         1 <1>         0.059108 
     66 H          -1.793422    2.501934   -0.842470 H         1 <1>         0.059108 
     67 H           3.033809   -1.369667   -6.065857 H         1 <1>         0.064668 
     68 H          -2.316658    1.541919    1.817601 H         1 <1>         0.059635 
     69 H          -2.179267   -0.239923    1.592561 H         1 <1>         0.059635 
     70 H           2.097851   -4.276629   -5.961671 H         1 <1>         0.058370 
     71 H           2.110673   -3.310064   -7.478925 H         1 <1>         0.058370 
     72 H           3.082630   -2.992711    0.303593 H         1 <1>         0.064347 
     73 H           3.332134    0.872243   -1.764288 H         1 <1>         0.064347 
     74 H           3.258403    0.518113    3.797070 H         1 <1>         0.062459 
     75 H           3.502061   -1.846359    2.475979 H         1 <1>         0.062423 
     76 H           3.391771    2.035814    0.460841 H         1 <1>         0.062423 
     77 H          -4.331037    1.055980    2.693777 H         1 <1>         0.067735 
     78 H           4.791795    2.285642    4.129478 H         1 <1>         0.065602 
     79 H          -6.649209   -0.627979    1.626746 H         1 <1>         0.062526 
     80 H           6.396339   -0.196115    1.611690 H         1 <1>         0.062620 
     81 H           6.778824   -1.229612   -0.627486 H         1 <1>         0.064341 
     82 H           6.151163    2.640892   -2.582267 H         1 <1>         0.066921 
     83 H           5.499413    4.469269   -1.073972 H         1 <1>         0.217341 
     84 H          -8.596107   -0.644257    3.235667 H         1 <1>         0.065001 
     85 H          -5.503785    0.203948    7.112521 H         1 <1>         0.064421 
     86 H          -4.583126    0.194489    4.792034 H         1 <1>         0.062425 
     87 H          -7.418951    0.098415    8.494564 H         1 <1>         0.217422 
     88 H         -11.567091   -0.938055    6.606964 H         1 <1>         0.052871 
     89 H         -10.413877    0.262755    7.251260 H         1 <1>         0.052871 
     90 H         -10.098510   -1.514445    7.442551 H         1 <1>         0.052871 
@<TRIPOS>BOND
     1   15    1 1    
     2    1   17 1    
     3   17    2 1    
     4    2   21 1    
     5   20    3 1    
     6    3   22 1    
     7   14    4 1    
     8    4   53 1    
     9   16    5 1    
    10    5   54 1    
    11   18    6 1    
    12    6   55 1    
    13    7   20 1    
    14   25    7 1    
    15   19    8 1    
    16    8   56 1    
    17   23    9 1    
    18    9   26 1    
    19   24   10 1    
    20   10   57 1    
    21   26   11 2    
    22   36   12 2    
    23   41   13 1    
    24   13   58 1    
    25   16   14 1    
    26   14   21 1    
    27   14   23 1    
    28   15   18 1    
    29   20   15 1    
    30   15   59 1    
    31   17   16 1    
    32   16   60 1    
    33   17   61 1    
    34   18   19 1    
    35   18   62 1    
    36   22   19 1    
    37   19   63 1    
    38   20   64 1    
    39   21   65 1    
    40   21   66 1    
    41   22   24 1    
    42   22   67 1    
    43   23   68 1    
    44   23   69 1    
    45   24   70 1    
    46   24   71 1    
    47   27   25 1    
    48   28   25 2    
    49   26   33 1    
    50   31   27 2    
    51   27   72 1    
    52   32   28 1    
    53   28   73 1    
    54   30   29 1    
    55   29   31 1    
    56   29   32 2    
    57   34   30 2    
    58   30   74 1    
    59   31   75 1    
    60   32   76 1    
    61   33   35 2    
    62   33   77 1    
    63   36   34 1    
    64   34   78 1    
    65   35   44 1    
    66   35   79 1    
    67   38   36 1    
    68   37   38 1    
    69   39   37 2    
    70   37   80 1    
    71   38   40 2    
    72   39   41 1    
    73   39   81 1    
    74   40   42 1    
    75   40   43 1    
    76   41   42 2    
    77   42   82 1    
    78   43   83 1    
    79   44   45 1    
    80   44   49 2    
    81   45   46 2    
    82   45   84 1    
    83   46   47 1    
    84   46   51 1    
    85   47   48 2    
    86   47   50 1    
    87   48   49 1    
    88   48   85 1    
    89   49   86 1    
    90   50   87 1    
    91   51   52 1    
    92   52   88 1    
    93   52   89 1    
    94   52   90 1    
@<TRIPOS>SUBSTRUCTURE
     1 ****       29 TEMP              0 ****  ****    0 ROOT 
@<TRIPOS>NORMAL
@<TRIPOS>FF_PBC
FORCE_FIELD_SETUP_FEATURE Force Field Setup information
v1.0  0 0.000000 0.000000 0.000000 0.000000 0.000000 0.000000 NONE 0 0 0 0 1 0 0 0 0 0 0 0 0
