@<TRIPOS>MOLECULE
MOL000053
   24    23     1     1     0
SMALL
USER_CHARGES


@<TRIPOS>ATOM
      1 O           3.065467   -0.554176    0.282098 O.3       1 <1>         0.000000 
      2 C           2.119438   -0.243330    1.319986 C.3       1 <1>         0.000000 
      3 C           0.672116    0.841479   -0.550684 C.3       1 <1>         0.000000 
      4 O           1.765428    0.985045   -1.475347 O.3       1 <1>         0.000000 
      5 C          -0.083627   -0.459548   -0.926884 C.3       1 <1>         0.000000 
      6 O          -0.562028   -0.297346   -2.274538 O.3       1 <1>         0.000000 
      7 C          -1.264740   -0.837908    0.012206 C.3       1 <1>         0.000000 
      8 O          -1.855090   -2.017086   -0.564474 O.3       1 <1>         0.000000 
      9 C          -2.324123    0.287787    0.152188 C.3       1 <1>         0.000000 
     10 O          -1.820353    1.344843    0.987249 O.3       1 <1>         0.000000 
     11 C           1.189624    0.857388    0.871218 C.2       1 <1>         0.000000 
     12 O           0.864235    1.744986    1.645993 O.2       1 <1>         0.000000 
     13 H           3.665949   -1.249146    0.533957 H         1 <1>         0.000000 
     14 H           1.526380   -1.133997    1.580760 H         1 <1>         0.000000 
     15 H           2.662233    0.086989    2.222853 H         1 <1>         0.000000 
     16 H          -0.011431    1.693433   -0.702532 H         1 <1>         0.000000 
     17 H           2.261454    1.785982   -1.338072 H         1 <1>         0.000000 
     18 H           0.646031   -1.287807   -0.915587 H         1 <1>         0.000000 
     19 H          -1.003133   -1.075250   -2.601015 H         1 <1>         0.000000 
     20 H          -0.883049   -1.085428    1.016314 H         1 <1>         0.000000 
     21 H          -2.562497   -2.384975   -0.045891 H         1 <1>         0.000000 
     22 H          -3.230809   -0.124789    0.628999 H         1 <1>         0.000000 
     23 H          -2.600980    0.669328   -0.844912 H         1 <1>         0.000000 
     24 H          -2.449928    2.047125    1.118890 H         1 <1>         0.000000 
@<TRIPOS>BOND
     1    2    1 1    
     2    1   13 1    
     3   11    2 1    
     4    2   14 1    
     5    2   15 1    
     6    3    4 1    
     7    3    5 1    
     8    3   11 1    
     9    3   16 1    
    10    4   17 1    
    11    5    6 1    
    12    5    7 1    
    13    5   18 1    
    14    6   19 1    
    15    7    8 1    
    16    7    9 1    
    17    7   20 1    
    18    8   21 1    
    19    9   10 1    
    20    9   22 1    
    21    9   23 1    
    22   10   24 1    
    23   11   12 2    
@<TRIPOS>SUBSTRUCTURE
     1 ****        3 TEMP              0 ****  ****    0 ROOT 
@<TRIPOS>NORMAL
@<TRIPOS>FF_PBC
FORCE_FIELD_SETUP_FEATURE Force Field Setup information
v1.0  0 0.000000 0.000000 0.000000 0.000000 0.000000 0.000000 NONE 0 0 0 0 0 0 0 0 0 0 0 0 0
