@<TRIPOS>MOLECULE
MOL012564
   35    34     1     1     0
SMALL
GASTEIGER


@<TRIPOS>ATOM
      1 C           5.425685    0.182750   -2.013938 C.3       1 <1>        -0.065034 
      2 C           6.286584   -0.244805   -0.796394 C.3       1 <1>        -0.053312 
      3 C           5.590420   -0.068392    0.590181 C.3       1 <1>        -0.044128 
      4 C           4.256652   -0.873832    0.722461 C.3       1 <1>        -0.050459 
      5 C           2.986987   -0.018163    0.435711 C.3       1 <1>        -0.052574 
      6 C           1.695298   -0.880710    0.445362 C.3       1 <1>        -0.050459 
      7 C           0.361973   -0.069141    0.392595 C.3       1 <1>        -0.044128 
      8 C           0.241650    0.864479   -0.855345 C.3       1 <1>        -0.053312 
      9 C           0.714264    2.324918   -0.598899 C.3       1 <1>        -0.065034 
     10 C          -0.829616   -1.072312    0.425827 C.3       1 <1>        -0.062423 
     11 C           6.591912   -0.493980    1.703348 C.3       1 <1>        -0.062423 
     12 H           6.032147    0.141240   -2.933382 H         1 <1>         0.022986 
     13 H           4.568259   -0.493721   -2.149103 H         1 <1>         0.022986 
     14 H           5.062628    1.214563   -1.886905 H         1 <1>         0.022986 
     15 H           7.204710    0.367677   -0.809871 H         1 <1>         0.026521 
     16 H           6.585841   -1.297850   -0.927406 H         1 <1>         0.026521 
     17 H           5.383206    1.004511    0.742963 H         1 <1>         0.029804 
     18 H           4.285862   -1.753900    0.061309 H         1 <1>         0.026785 
     19 H           4.144547   -1.251219    1.752158 H         1 <1>         0.026785 
     20 H           2.905766    0.764214    1.209123 H         1 <1>         0.026545 
     21 H           3.083628    0.466714   -0.543933 H         1 <1>         0.026545 
     22 H           1.733077   -1.578239   -0.407222 H         1 <1>         0.026785 
     23 H           1.694043   -1.481125    1.370590 H         1 <1>         0.026785 
     24 H           0.288151    0.542892    1.307572 H         1 <1>         0.029804 
     25 H           0.787181    0.426735   -1.706701 H         1 <1>         0.026521 
     26 H          -0.815689    0.947217   -1.159755 H         1 <1>         0.026521 
     27 H           0.588175    2.924348   -1.514686 H         1 <1>         0.022986 
     28 H           0.107164    2.783678    0.197311 H         1 <1>         0.022986 
     29 H           1.768065    2.385241   -0.301363 H         1 <1>         0.022986 
     30 H          -1.789586   -0.536303    0.495908 H         1 <1>         0.023242 
     31 H          -0.758205   -1.743875    1.296100 H         1 <1>         0.023242 
     32 H          -0.837648   -1.684834   -0.489112 H         1 <1>         0.023242 
     33 H           6.171525   -0.297146    2.702234 H         1 <1>         0.023242 
     34 H           7.535735    0.067433    1.620787 H         1 <1>         0.023242 
     35 H           6.815510   -1.568763    1.622274 H         1 <1>         0.023242 
@<TRIPOS>BOND
     1    1    2 1    
     2    1   12 1    
     3    1   13 1    
     4    1   14 1    
     5    2    3 1    
     6    2   15 1    
     7    2   16 1    
     8    3    4 1    
     9    3   11 1    
    10    3   17 1    
    11    4    5 1    
    12    4   18 1    
    13    4   19 1    
    14    5    6 1    
    15    5   20 1    
    16    5   21 1    
    17    6    7 1    
    18    6   22 1    
    19    6   23 1    
    20    7    8 1    
    21    7   10 1    
    22    7   24 1    
    23    8    9 1    
    24    8   25 1    
    25    8   26 1    
    26    9   27 1    
    27    9   28 1    
    28    9   29 1    
    29   10   30 1    
    30   10   31 1    
    31   10   32 1    
    32   11   33 1    
    33   11   34 1    
    34   11   35 1    
@<TRIPOS>SUBSTRUCTURE
     1 ****        1 TEMP              0 ****  ****    0 ROOT 
@<TRIPOS>NORMAL
@<TRIPOS>FF_PBC
FORCE_FIELD_SETUP_FEATURE Force Field Setup information
v1.0  0 0.000000 0.000000 0.000000 0.000000 0.000000 0.000000 NONE 0 0 0 0 1 0 0 0 0 0 0 0 0
