@<TRIPOS>MOLECULE
MOL001663
   81    85     1     1     0
SMALL
GASTEIGER


@<TRIPOS>ATOM
      1 C          -0.726142   -2.881919   -0.802472 C.3       1 <1>        -0.025831 
      2 C          -1.084325   -2.917560    0.956524 C.3       1 <1>         0.060637 
      3 C          -2.550759   -2.255796    1.720104 C.3       1 <1>        -0.005589 
      4 C          -3.504883   -1.349050    0.403172 C.3       1 <1>        -0.027836 
      5 C          -2.802493   -0.720047   -1.271247 C.3       1 <1>        -0.024959 
      6 C          -1.595653   -1.886547   -2.015077 C.3       1 <1>        -0.044720 
      7 O           0.051781   -2.796089    1.828838 O.3       1 <1>        -0.391248 
      8 C          -2.671357   -1.643992    3.226066 C.3       1 <1>        -0.057190 
      9 C          -3.247394   -3.636283    2.225036 C.3       1 <1>        -0.057190 
     10 C          -4.437913   -2.361387   -0.078652 C.3       1 <1>        -0.048609 
     11 C          -2.920189   -2.574615   -0.363571 C.3       1 <1>        -0.046268 
     12 C          -1.476462   -0.841534   -0.071794 C.3       1 <1>        -0.019372 
     13 C          -1.886939    0.330483   -1.018976 C.3       1 <1>        -0.025736 
     14 H          -4.177394   -0.589103    0.848940 H         1 <1>         0.031210 
     15 C          -3.884102   -0.278872   -2.308756 C.3       1 <1>        -0.059009 
     16 C           0.171007   -0.318656   -0.381430 C.3       1 <1>        -0.005095 
     17 C           0.322383    1.285400   -0.326683 C.2       1 <1>        -0.062908 
     18 C          -0.716816    2.157720   -0.428717 C.2       1 <1>        -0.083635 
     19 C          -2.172053    1.770188   -0.578787 C.3       1 <1>        -0.030614 
     20 C           1.347345   -0.831933    0.592491 C.3       1 <1>        -0.042415 
     21 C           2.756107   -0.144692    0.654013 C.3       1 <1>        -0.036973 
     22 C           2.618299    1.365547    0.964702 C.3       1 <1>         0.062460 
     23 C           1.684611    1.985854   -0.120864 C.3       1 <1>        -0.004222 
     24 C           4.024515    2.058761    1.042921 C.3       1 <1>        -0.037288 
     25 C           4.117081    3.374982    0.227428 C.3       1 <1>        -0.046865 
     26 C           3.773340    3.154635   -1.275191 C.3       1 <1>        -0.034278 
     27 C           2.321726    2.585335   -1.428810 C.3       1 <1>        -0.040331 
     28 C           1.989547    1.492681    2.353763 C.2       1 <1>         0.266382 
     29 O           0.970966    2.128303    2.578974 O.2       1 <1>        -0.264536 
     30 O           2.628519    0.858351    3.341733 O.3       1 <1>        -0.330836 
     31 C           3.895031    4.527567   -2.007426 C.3       1 <1>        -0.059792 
     32 C           4.810232    2.194040   -1.942602 C.3       1 <1>        -0.059792 
     33 H          -1.491511    0.511519   -2.027920 H         1 <1>         0.031460 
     34 C           0.900165   -0.460226   -1.802750 C.3       1 <1>        -0.055323 
     35 C          -1.440439   -0.047693    1.333473 C.3       1 <1>        -0.058491 
     36 H           1.471012    2.932287    0.402804 H         1 <1>         0.035619 
     37 H           0.349525   -2.941776   -0.909091 H         1 <1>         0.029037 
     38 H          -0.895442   -3.899448   -1.204283 H         1 <1>         0.029037 
     39 H          -1.101141   -4.019967    1.076606 H         1 <1>         0.059852 
     40 H          -2.035731   -2.574118   -2.763135 H         1 <1>         0.027149 
     41 H          -1.014311   -1.437534   -2.816797 H         1 <1>         0.027149 
     42 H          -0.123832   -2.952175    2.753831 H         1 <1>         0.209800 
     43 H          -3.738615   -1.416993    3.383909 H         1 <1>         0.023587 
     44 H          -2.341881   -2.325077    4.027882 H         1 <1>         0.023587 
     45 H          -2.223649   -0.722089    3.619044 H         1 <1>         0.023587 
     46 H          -3.511414   -4.447821    1.536870 H         1 <1>         0.023587 
     47 H          -2.567978   -4.178438    2.904741 H         1 <1>         0.023587 
     48 H          -4.192203   -3.502486    2.778855 H         1 <1>         0.023587 
     49 H          -4.991606   -2.887576    0.707816 H         1 <1>         0.026846 
     50 H          -5.178196   -1.899907   -0.763005 H         1 <1>         0.026846 
     51 H          -3.397703   -2.958670   -1.307633 H         1 <1>         0.027096 
     52 H          -2.811886   -3.668963   -0.238515 H         1 <1>         0.027096 
     53 H          -4.630712    0.355573   -1.807518 H         1 <1>         0.023525 
     54 H          -4.385607   -1.151057   -2.751668 H         1 <1>         0.023525 
     55 H          -3.464281    0.286743   -3.154694 H         1 <1>         0.023525 
     56 H          -0.589974    3.241530   -0.396850 H         1 <1>         0.057198 
     57 H          -2.789898    1.938133    0.312223 H         1 <1>         0.031042 
     58 H          -2.639919    2.347094   -1.395636 H         1 <1>         0.031042 
     59 H           1.649416   -1.863788    0.391944 H         1 <1>         0.027403 
     60 H           1.130135   -0.763870    1.655764 H         1 <1>         0.027403 
     61 H           3.358622   -0.598028    1.464200 H         1 <1>         0.027586 
     62 H           3.384570   -0.312756   -0.229469 H         1 <1>         0.027586 
     63 H           4.290154    2.312139    2.083126 H         1 <1>         0.027577 
     64 H           4.821697    1.381214    0.705224 H         1 <1>         0.027577 
     65 H           5.142455    3.772636    0.314339 H         1 <1>         0.027072 
     66 H           3.447347    4.131491    0.668361 H         1 <1>         0.027072 
     67 H           2.323859    1.905464   -2.285058 H         1 <1>         0.027642 
     68 H           1.648984    3.395273   -1.762725 H         1 <1>         0.027642 
     69 H           2.190518    0.965747    4.179399 H         1 <1>         0.220226 
     70 H           3.625739    4.426513   -3.070484 H         1 <1>         0.023499 
     71 H           4.925402    4.911786   -1.949436 H         1 <1>         0.023499 
     72 H           3.226745    5.276321   -1.554928 H         1 <1>         0.023499 
     73 H           4.685584    2.189945   -3.036569 H         1 <1>         0.023499 
     74 H           5.840306    2.515099   -1.723844 H         1 <1>         0.023499 
     75 H           4.692850    1.156692   -1.605467 H         1 <1>         0.023499 
     76 H           1.935603   -0.156014   -1.764419 H         1 <1>         0.023829 
     77 H           1.060474   -1.454430   -2.226466 H         1 <1>         0.023829 
     78 H           0.533669    0.185290   -2.613784 H         1 <1>         0.023829 
     79 H          -0.886334   -0.633600    2.043007 H         1 <1>         0.023542 
     80 H          -2.400789    0.290902    1.724486 H         1 <1>         0.023542 
     81 H          -0.905564    0.876452    1.538110 H         1 <1>         0.023542 
@<TRIPOS>BOND
     1    1    2 1    
     2    1    6 1    
     3    1   37 1    
     4    1   38 1    
     5    2    3 1    
     6    2    7 1    
     7    2   39 1    
     8    3    4 1    
     9    3    8 1    
    10    3    9 1    
    11    4    5 1    
    12    4   10 1    
    13    4   14 1    
    14    5    6 1    
    15    5   13 1    
    16    5   15 1    
    17    6   40 1    
    18    6   41 1    
    19    7   42 1    
    20    8   43 1    
    21    8   44 1    
    22    8   45 1    
    23    9   46 1    
    24    9   47 1    
    25    9   48 1    
    26   10   11 1    
    27   10   49 1    
    28   10   50 1    
    29   11   12 1    
    30   11   51 1    
    31   11   52 1    
    32   12   13 1    
    33   12   16 1    
    34   12   35 1    
    35   13   19 1    
    36   13   33 1    
    37   15   53 1    
    38   15   54 1    
    39   15   55 1    
    40   16   17 1    
    41   16   20 1    
    42   16   34 1    
    43   17   18 2    
    44   17   23 1    
    45   18   19 1    
    46   18   56 1    
    47   19   57 1    
    48   19   58 1    
    49   20   21 1    
    50   20   59 1    
    51   20   60 1    
    52   21   22 1    
    53   21   61 1    
    54   21   62 1    
    55   22   23 1    
    56   22   24 1    
    57   22   28 1    
    58   23   27 1    
    59   23   36 1    
    60   24   25 1    
    61   24   63 1    
    62   24   64 1    
    63   25   26 1    
    64   25   65 1    
    65   25   66 1    
    66   26   27 1    
    67   26   31 1    
    68   26   32 1    
    69   27   67 1    
    70   27   68 1    
    71   28   29 2    
    72   28   30 1    
    73   30   69 1    
    74   31   70 1    
    75   31   71 1    
    76   31   72 1    
    77   32   73 1    
    78   32   74 1    
    79   32   75 1    
    80   34   76 1    
    81   34   77 1    
    82   34   78 1    
    83   35   79 1    
    84   35   80 1    
    85   35   81 1    
@<TRIPOS>SUBSTRUCTURE
     1 ****        1 TEMP              0 ****  ****    0 ROOT 
@<TRIPOS>NORMAL
@<TRIPOS>FF_PBC
FORCE_FIELD_SETUP_FEATURE Force Field Setup information
v1.0  0 0.000000 0.000000 0.000000 0.000000 0.000000 0.000000 NONE 0 0 0 0 1 0 0 0 0 0 0 0 0
