@<TRIPOS>MOLECULE
MOL000609
   25    26     1     1     0
SMALL
GASTEIGER


@<TRIPOS>ATOM
      1 C           1.876372   -1.732717   -1.513447 C.2       1 <1>         0.146237 
      2 C           1.233127   -0.902991   -0.475687 C.2       1 <1>        -0.008487 
      3 C           1.920301   -0.042052    0.293698 C.2       1 <1>        -0.077234 
      4 C           1.191513    0.794535    1.328842 C.3       1 <1>        -0.030745 
      5 C          -0.324592    0.444098    1.302505 C.3       1 <1>        -0.031320 
      6 C          -0.412400   -1.106099    1.310670 C.3       1 <1>        -0.041991 
      7 C          -0.870027    0.430629   -0.155194 C.3       1 <1>        -0.024864 
      8 C          -2.429207    0.430493   -0.213465 C.3       1 <1>        -0.058996 
      9 C          -0.334437    1.497087   -1.160234 C.3       1 <1>        -0.058996 
     10 C          -0.259408   -0.995925   -0.229295 C.3       1 <1>        -0.007446 
     11 O           3.077907   -1.665711   -1.716671 O.2       1 <1>        -0.296034 
     12 H           1.286004   -2.420440   -2.117162 H         1 <1>         0.107802 
     13 H           2.999103    0.073359    0.183355 H         1 <1>         0.057585 
     14 H           1.333232    1.867725    1.128653 H         1 <1>         0.031035 
     15 H           1.600775    0.574641    2.327461 H         1 <1>         0.031035 
     16 H          -0.935217    0.973493    2.051914 H         1 <1>         0.030926 
     17 H          -1.389137   -1.496676    1.634178 H         1 <1>         0.027417 
     18 H           0.387010   -1.646334    1.845211 H         1 <1>         0.027417 
     19 H          -2.759029    0.180961   -1.233341 H         1 <1>         0.023525 
     20 H          -2.802003    1.435444    0.036282 H         1 <1>         0.023525 
     21 H          -2.911189   -0.278796    0.471837 H         1 <1>         0.023525 
     22 H          -0.733523    1.278648   -2.162126 H         1 <1>         0.023525 
     23 H           0.756560    1.554516   -1.258035 H         1 <1>         0.023525 
     24 H          -0.692531    2.490761   -0.851699 H         1 <1>         0.023525 
     25 H          -0.809401   -1.738749   -0.828250 H         1 <1>         0.035506 
@<TRIPOS>BOND
     1    1    2 1    
     2    1   11 2    
     3    1   12 1    
     4    2    3 2    
     5    2   10 1    
     6    3    4 1    
     7    3   13 1    
     8    4    5 1    
     9    4   14 1    
    10    4   15 1    
    11    5    6 1    
    12    5    7 1    
    13    5   16 1    
    14    6   10 1    
    15    6   17 1    
    16    6   18 1    
    17    7    8 1    
    18    7    9 1    
    19    7   10 1    
    20    8   19 1    
    21    8   20 1    
    22    8   21 1    
    23    9   22 1    
    24    9   23 1    
    25    9   24 1    
    26   10   25 1    
@<TRIPOS>SUBSTRUCTURE
     1 ****        1 TEMP              0 ****  ****    0 ROOT 
@<TRIPOS>NORMAL
@<TRIPOS>FF_PBC
FORCE_FIELD_SETUP_FEATURE Force Field Setup information
v1.0  0 0.000000 0.000000 0.000000 0.000000 0.000000 0.000000 NONE 0 0 0 0 1 0 0 0 0 0 0 0 0
