@<TRIPOS>MOLECULE
MOL006935
   24    23     1     1     0
SMALL
GASTEIGER


@<TRIPOS>ATOM
      1 C           2.878749    3.759343    0.000104 C.2       1 <1>        -0.102630 
      2 C           1.721548    3.086763   -0.000055 C.2       1 <1>        -0.091108 
      3 C           1.684231    1.577194   -0.000219 C.3       1 <1>        -0.035012 
      4 C           0.230835    1.031199    0.000084 C.3       1 <1>        -0.049624 
      5 C           0.207229   -0.521976   -0.000108 C.3       1 <1>        -0.052788 
      6 C          -1.247934   -1.065513    0.000125 C.3       1 <1>        -0.053297 
      7 C          -1.272335   -2.618446   -0.000103 C.3       1 <1>        -0.055911 
      8 C          -2.725830   -3.159589    0.000120 C.3       1 <1>        -0.065276 
      9 H           2.893419    4.849569    0.000220 H         1 <1>         0.053174 
     10 H           3.832443    3.231699    0.000117 H         1 <1>         0.053174 
     11 H           0.786887    3.650507   -0.000074 H         1 <1>         0.056630 
     12 H           2.214458    1.211625   -0.894390 H         1 <1>         0.030724 
     13 H           2.214925    1.211382    0.893577 H         1 <1>         0.030724 
     14 H          -0.295010    1.405160    0.894267 H         1 <1>         0.026822 
     15 H          -0.295447    1.405371   -0.893755 H         1 <1>         0.026822 
     16 H           0.735009   -0.894180   -0.893624 H         1 <1>         0.026537 
     17 H           0.735392   -0.894409    0.893088 H         1 <1>         0.026537 
     18 H          -1.776174   -0.693875    0.893632 H         1 <1>         0.026520 
     19 H          -1.776556   -0.693622   -0.893031 H         1 <1>         0.026520 
     20 H          -0.747759   -2.995955   -0.893748 H         1 <1>         0.026265 
     21 H          -0.747382   -2.996221    0.893233 H         1 <1>         0.026265 
     22 H          -2.720383   -4.261165   -0.000043 H         1 <1>         0.022978 
     23 H          -3.265023   -2.812418    0.895313 H         1 <1>         0.022978 
     24 H          -3.265393   -2.812146   -0.894732 H         1 <1>         0.022978 
@<TRIPOS>BOND
     1    1    2 2    
     2    1    9 1    
     3    1   10 1    
     4    2    3 1    
     5    2   11 1    
     6    3    4 1    
     7    3   12 1    
     8    3   13 1    
     9    4    5 1    
    10    4   14 1    
    11    4   15 1    
    12    5    6 1    
    13    5   16 1    
    14    5   17 1    
    15    6    7 1    
    16    6   18 1    
    17    6   19 1    
    18    7    8 1    
    19    7   20 1    
    20    7   21 1    
    21    8   22 1    
    22    8   23 1    
    23    8   24 1    
@<TRIPOS>SUBSTRUCTURE
     1 ****        1 TEMP              0 ****  ****    0 ROOT 
@<TRIPOS>NORMAL
@<TRIPOS>FF_PBC
FORCE_FIELD_SETUP_FEATURE Force Field Setup information
v1.0  0 0.000000 0.000000 0.000000 0.000000 0.000000 0.000000 NONE 0 0 0 0 1 0 0 0 0 0 0 0 0
