@<TRIPOS>MOLECULE
MOL002624
   46    46     1     1     0
SMALL
GASTEIGER


@<TRIPOS>ATOM
      1 C           5.645401   -1.942951   -0.256609 C.ar      1 <1>         0.105659 
      2 C           6.162546   -3.289792    0.097128 C.ar      1 <1>         0.102451 
      3 C           5.285509   -4.294732    0.382291 C.ar      1 <1>        -0.029141 
      4 C           3.825112   -4.049768    0.345117 C.ar      1 <1>        -0.055971 
      5 C           3.328369   -2.822231    0.029522 C.ar      1 <1>        -0.044363 
      6 C           4.282809   -1.725902   -0.286709 C.ar      1 <1>        -0.025965 
      7 O           6.568815   -0.925866   -0.551937 O.3       1 <1>        -0.345341 
      8 C           6.178469    0.394511   -0.963186 C.3       1 <1>         0.043136 
      9 O           7.546742   -3.506139    0.130678 O.3       1 <1>        -0.357269 
     10 C           1.798257   -2.639599    0.018321 C.3       1 <1>        -0.020925 
     11 C           1.298024   -1.173518   -0.083606 C.3       1 <1>         0.009797 
     12 C          -0.205297   -1.072846    0.020205 C.2       1 <1>         0.133680 
     13 C          -0.806756    0.309273    0.113665 C.3       1 <1>         0.005832 
     14 C          -2.358735    0.286147    0.073022 C.3       1 <1>        -0.046375 
     15 C          -2.948369    1.720028    0.167312 C.3       1 <1>        -0.052673 
     16 C          -4.500266    1.698889    0.109928 C.3       1 <1>        -0.053055 
     17 C          -5.087374    3.133708    0.206503 C.3       1 <1>        -0.053306 
     18 C          -6.638863    3.117368    0.140248 C.3       1 <1>        -0.055911 
     19 C          -7.221200    4.551465    0.239517 C.3       1 <1>        -0.065276 
     20 O          -0.906939   -2.071450    0.026271 O.2       1 <1>        -0.297400 
     21 H           5.643334   -5.285793    0.640349 H         1 <1>         0.064412 
     22 H           3.150915   -4.868910    0.575130 H         1 <1>         0.062110 
     23 H           3.898237   -0.751011   -0.543061 H         1 <1>         0.064684 
     24 H           7.097673    0.969949   -1.147235 H         1 <1>         0.052871 
     25 H           5.596884    0.362052   -1.897426 H         1 <1>         0.052871 
     26 H           5.604816    0.904069   -0.173876 H         1 <1>         0.052871 
     27 H           7.815297   -4.371348    0.417699 H         1 <1>         0.217422 
     28 H           1.392943   -3.220503   -0.825843 H         1 <1>         0.031720 
     29 H           1.401441   -3.065783    0.954441 H         1 <1>         0.031720 
     30 H           1.747447   -0.576623    0.725650 H         1 <1>         0.034470 
     31 H           1.586677   -0.746736   -1.056722 H         1 <1>         0.034470 
     32 H          -0.428018    0.916362   -0.723550 H         1 <1>         0.034152 
     33 H          -0.473815    0.769315    1.057318 H         1 <1>         0.034152 
     34 H          -2.735509   -0.320958    0.913006 H         1 <1>         0.026927 
     35 H          -2.686127   -0.185077   -0.868535 H         1 <1>         0.026927 
     36 H          -2.562822    2.328650   -0.666994 H         1 <1>         0.026539 
     37 H          -2.624719    2.185454    1.112894 H         1 <1>         0.026539 
     38 H          -4.888287    1.089097    0.942484 H         1 <1>         0.026528 
     39 H          -4.823484    1.235894   -0.837085 H         1 <1>         0.026528 
     40 H          -4.695262    3.745131   -0.623013 H         1 <1>         0.026520 
     41 H          -4.768809    3.594759    1.155933 H         1 <1>         0.026520 
     42 H          -7.037905    2.508040    0.968527 H         1 <1>         0.026265 
     43 H          -6.963199    2.661679   -0.810458 H         1 <1>         0.026265 
     44 H          -8.321031    4.518503    0.189195 H         1 <1>         0.022978 
     45 H          -6.851219    5.174473   -0.589710 H         1 <1>         0.022978 
     46 H          -6.928110    5.019918    1.191998 H         1 <1>         0.022978 
@<TRIPOS>BOND
     1    1    2 1    
     2    1    6 2    
     3    1    7 1    
     4    2    3 2    
     5    2    9 1    
     6    3    4 1    
     7    3   21 1    
     8    4    5 2    
     9    4   22 1    
    10    5    6 1    
    11    5   10 1    
    12    6   23 1    
    13    7    8 1    
    14    8   24 1    
    15    8   25 1    
    16    8   26 1    
    17    9   27 1    
    18   10   11 1    
    19   10   28 1    
    20   10   29 1    
    21   11   12 1    
    22   11   30 1    
    23   11   31 1    
    24   12   13 1    
    25   12   20 2    
    26   13   14 1    
    27   13   32 1    
    28   13   33 1    
    29   14   15 1    
    30   14   34 1    
    31   14   35 1    
    32   15   16 1    
    33   15   36 1    
    34   15   37 1    
    35   16   17 1    
    36   16   38 1    
    37   16   39 1    
    38   17   18 1    
    39   17   40 1    
    40   17   41 1    
    41   18   19 1    
    42   18   42 1    
    43   18   43 1    
    44   19   44 1    
    45   19   45 1    
    46   19   46 1    
@<TRIPOS>SUBSTRUCTURE
     1 ****        1 TEMP              0 ****  ****    0 ROOT 
@<TRIPOS>NORMAL
@<TRIPOS>FF_PBC
FORCE_FIELD_SETUP_FEATURE Force Field Setup information
v1.0  0 0.000000 0.000000 0.000000 0.000000 0.000000 0.000000 NONE 0 0 0 0 1 0 0 0 0 0 0 0 0
