@<TRIPOS>MOLECULE
MOL005011
   56    59     1     1     0
SMALL
GASTEIGER


@<TRIPOS>ATOM
      1 O          -4.980649   -0.152223   -3.213531 O.3       1 <1>        -0.334125 
      2 C          -1.167045   -1.935438   -2.999186 C.ar      1 <1>         0.050824 
      3 C          -5.766179   -0.128401   -2.008148 C.3       1 <1>         0.088837 
      4 C          -3.016241   -0.687856   -1.996888 C.ar      1 <1>         0.035459 
      5 C          -1.665311   -1.296495   -1.923919 C.ar      1 <1>         0.097217 
      6 C          -3.730831   -0.764241   -3.131203 C.ar      1 <1>         0.086906 
      7 C          -1.966765   -2.039343   -4.245033 C.ar      1 <1>        -0.046209 
      8 C          -4.922638    0.309396   -0.831670 C.2       1 <1>        -0.051917 
      9 C          -3.185482   -1.481026   -4.307240 C.ar      1 <1>        -0.030233 
     10 C          -3.614381    0.035945   -0.812660 C.2       1 <1>        -0.050875 
     11 C          -6.925673    0.869133   -2.257058 C.3       1 <1>        -0.031936 
     12 C          -6.310910   -1.554563   -1.737769 C.3       1 <1>        -0.031936 
     13 C           0.215384   -2.539564   -2.924140 C.2       1 <1>         0.196738 
     14 C           1.030851   -2.365345   -1.669571 C.3       1 <1>         0.148142 
     15 C           0.503552   -1.101638   -0.942083 C.3       1 <1>         0.123220 
     16 O          -0.917906   -1.195686   -0.744832 O.3       1 <1>        -0.332480 
     17 O           2.428595   -2.217780   -1.996859 O.3       1 <1>        -0.380953 
     18 O           0.659562   -3.160133   -3.877325 O.2       1 <1>        -0.289092 
     19 C           1.220998   -0.896167    0.401303 C.ar      1 <1>        -0.015061 
     20 C           2.022416    0.330883    0.637878 C.ar      1 <1>        -0.050086 
     21 C           2.722764    0.542338    1.839471 C.ar      1 <1>        -0.013596 
     22 C           2.676957   -0.509278    2.891008 C.ar      1 <1>         0.076054 
     23 C           1.893678   -1.659246    2.683032 C.ar      1 <1>        -0.031322 
     24 C           1.139011   -1.850407    1.421174 C.ar      1 <1>        -0.053558 
     25 O           3.415296   -0.358794    4.068186 O.3       1 <1>        -0.359551 
     26 C           3.496682    1.870039    1.966073 C.3       1 <1>        -0.006801 
     27 C           4.027205    2.304578    3.313981 C.2       1 <1>        -0.080898 
     28 C           5.125513    3.060689    3.481262 C.2       1 <1>        -0.079307 
     29 C           5.926039    3.615290    2.321481 C.3       1 <1>        -0.044040 
     30 C           5.641812    3.424574    4.857351 C.3       1 <1>        -0.044040 
     31 H          -1.563210   -2.565695   -5.103810 H         1 <1>         0.062611 
     32 H          -5.379580    0.830564    0.011311 H         1 <1>         0.060053 
     33 H          -3.778553   -1.546247   -5.213069 H         1 <1>         0.064368 
     34 H          -2.983601    0.314002    0.032009 H         1 <1>         0.062283 
     35 H          -7.523697    0.548028   -3.123272 H         1 <1>         0.026052 
     36 H          -6.511677    1.867879   -2.464817 H         1 <1>         0.026052 
     37 H          -7.582104    0.933335   -1.376760 H         1 <1>         0.026052 
     38 H          -6.815168   -1.937639   -2.637976 H         1 <1>         0.026052 
     39 H          -5.488666   -2.240421   -1.480467 H         1 <1>         0.026052 
     40 H          -7.029464   -1.544054   -0.904540 H         1 <1>         0.026052 
     41 H           0.865020   -3.270192   -1.064042 H         1 <1>         0.070644 
     42 H           0.703029   -0.231436   -1.587938 H         1 <1>         0.068214 
     43 H           2.991770   -2.144842   -1.232873 H         1 <1>         0.210495 
     44 H           2.066195    1.089507   -0.136653 H         1 <1>         0.062472 
     45 H           1.839818   -2.431399    3.442810 H         1 <1>         0.064338 
     46 H           0.530746   -2.739673    1.293872 H         1 <1>         0.062191 
     47 H           3.208577   -0.985550    4.751075 H         1 <1>         0.217325 
     48 H           2.816809    2.675883    1.649649 H         1 <1>         0.035640 
     49 H           4.312258    1.788024    1.233005 H         1 <1>         0.035640 
     50 H           3.468731    1.999553    4.196795 H         1 <1>         0.057472 
     51 H           6.501433    4.501662    2.630026 H         1 <1>         0.027427 
     52 H           5.272038    3.932437    1.495460 H         1 <1>         0.027427 
     53 H           6.629240    2.850743    1.959055 H         1 <1>         0.027427 
     54 H           5.117363    2.895692    5.667009 H         1 <1>         0.027427 
     55 H           6.710239    3.168523    4.923636 H         1 <1>         0.027427 
     56 H           5.525425    4.507313    5.019721 H         1 <1>         0.027427 
@<TRIPOS>BOND
     1    1    3 1    
     2    6    1 1    
     3    5    2 2    
     4    2    7 1    
     5    2   13 1    
     6    3    8 1    
     7    3   11 1    
     8    3   12 1    
     9    4    5 1    
    10    4    6 2    
    11    4   10 1    
    12    5   16 1    
    13    6    9 1    
    14    7    9 2    
    15    7   31 1    
    16    8   10 2    
    17    8   32 1    
    18    9   33 1    
    19   10   34 1    
    20   11   35 1    
    21   11   36 1    
    22   11   37 1    
    23   12   38 1    
    24   12   39 1    
    25   12   40 1    
    26   13   14 1    
    27   13   18 2    
    28   14   15 1    
    29   14   17 1    
    30   14   41 1    
    31   15   16 1    
    32   15   19 1    
    33   15   42 1    
    34   17   43 1    
    35   19   20 1    
    36   19   24 2    
    37   20   21 2    
    38   20   44 1    
    39   21   22 1    
    40   21   26 1    
    41   22   23 2    
    42   22   25 1    
    43   23   24 1    
    44   23   45 1    
    45   24   46 1    
    46   25   47 1    
    47   26   27 1    
    48   26   48 1    
    49   26   49 1    
    50   27   28 2    
    51   27   50 1    
    52   28   29 1    
    53   28   30 1    
    54   29   51 1    
    55   29   52 1    
    56   29   53 1    
    57   30   54 1    
    58   30   55 1    
    59   30   56 1    
@<TRIPOS>SUBSTRUCTURE
     1 ****        2 TEMP              0 ****  ****    0 ROOT 
@<TRIPOS>NORMAL
@<TRIPOS>FF_PBC
FORCE_FIELD_SETUP_FEATURE Force Field Setup information
v1.0  0 0.000000 0.000000 0.000000 0.000000 0.000000 0.000000 NONE 0 0 0 0 1 0 0 0 0 0 0 0 0
