@<TRIPOS>MOLECULE
MOL004866
   44    46     1     1     0
SMALL
GASTEIGER


@<TRIPOS>ATOM
      1 C          -0.054581    1.943633    0.223592 C.ar      1 <1>         0.091776 
      2 C           0.906065    0.817095    0.154051 C.ar      1 <1>         0.082223 
      3 C           0.463960   -0.482485   -0.102500 C.ar      1 <1>         0.098822 
      4 C          -0.975430   -0.718722   -0.352588 C.ar      1 <1>        -0.000253 
      5 C          -1.898763    0.343297   -0.313912 C.ar      1 <1>         0.080983 
      6 C          -1.431267    1.718933    0.011161 C.ar      1 <1>         0.016576 
      7 C           2.387997    0.997746    0.349507 C.2       1 <1>         0.193518 
      8 C           3.223290   -0.205228    0.294248 C.2       1 <1>         0.016920 
      9 C           2.683338   -1.412867    0.076784 C.2       1 <1>         0.093944 
     10 O           1.361834   -1.557951   -0.132745 O.3       1 <1>        -0.307710 
     11 C           3.103815   -3.766052   -0.710295 C.ar      1 <1>        -0.019772 
     12 C           3.907859   -5.014087   -0.773099 C.ar      1 <1>         0.102827 
     13 C           5.114775   -5.100234   -0.061644 C.ar      1 <1>         0.102222 
     14 C           3.534251   -2.668039    0.050709 C.ar      1 <1>         0.008184 
     15 C          -2.395500    2.915565    0.118321 C.3       1 <1>        -0.004339 
     16 C          -3.816006    2.635971    0.546432 C.2       1 <1>        -0.080815 
     17 C          -4.837213    3.486246    0.336542 C.2       1 <1>        -0.079306 
     18 C          -6.256329    3.125388    0.716370 C.3       1 <1>        -0.044040 
     19 C          -4.666635    4.857231   -0.283887 C.3       1 <1>        -0.044040 
     20 O          -3.249755    0.117809   -0.591719 O.3       1 <1>        -0.359385 
     21 O           0.415378    3.224245    0.507424 O.3       1 <1>        -0.358673 
     22 O           2.891755    2.093162    0.541221 O.2       1 <1>        -0.287017 
     23 O           3.485375   -6.109858   -1.532387 O.3       1 <1>        -0.357261 
     24 O           5.893018   -6.259416   -0.107035 O.3       1 <1>        -0.357274 
     25 C           4.805999   -2.778811    0.811888 C.ar      1 <1>        -0.049519 
     26 C           5.569377   -3.950335    0.751576 C.ar      1 <1>        -0.028770 
     27 H          -1.301386   -1.727918   -0.576913 H         1 <1>         0.066956 
     28 H           4.292070   -0.055631    0.431323 H         1 <1>         0.068219 
     29 H           2.174245   -3.701206   -1.264308 H         1 <1>         0.065074 
     30 H          -2.007844    3.629119    0.861008 H         1 <1>         0.035721 
     31 H          -2.384346    3.384211   -0.876864 H         1 <1>         0.035721 
     32 H          -4.011667    1.696725    1.061676 H         1 <1>         0.057473 
     33 H          -6.367128    2.070706    1.009255 H         1 <1>         0.027427 
     34 H          -6.919626    3.307186   -0.143176 H         1 <1>         0.027427 
     35 H          -6.586754    3.755231    1.555804 H         1 <1>         0.027427 
     36 H          -3.646860    5.255969   -0.190134 H         1 <1>         0.027427 
     37 H          -5.333942    5.577302    0.214010 H         1 <1>         0.027427 
     38 H          -4.933528    4.812589   -1.350072 H         1 <1>         0.027427 
     39 H          -3.512453   -0.796119   -0.581714 H         1 <1>         0.217328 
     40 H           0.272530    3.816472   -0.222348 H         1 <1>         0.217354 
     41 H           2.666077   -5.963268   -1.991565 H         1 <1>         0.217422 
     42 H           5.484174   -6.939786   -0.633753 H         1 <1>         0.217422 
     43 H           5.157114   -1.962689    1.432343 H         1 <1>         0.062505 
     44 H           6.499078   -4.030322    1.305302 H         1 <1>         0.064422 
@<TRIPOS>BOND
     1    2    1 1    
     2    1    6 2    
     3    1   21 1    
     4    3    2 2    
     5    7    2 1    
     6    3    4 1    
     7   10    3 1    
     8    4    5 2    
     9    4   27 1    
    10    5    6 1    
    11    5   20 1    
    12    6   15 1    
    13    8    7 1    
    14    7   22 2    
    15    9    8 2    
    16    8   28 1    
    17    9   10 1    
    18   14    9 1    
    19   11   12 1    
    20   11   14 2    
    21   11   29 1    
    22   12   13 2    
    23   12   23 1    
    24   13   24 1    
    25   13   26 1    
    26   14   25 1    
    27   15   16 1    
    28   15   30 1    
    29   15   31 1    
    30   16   17 2    
    31   16   32 1    
    32   17   18 1    
    33   17   19 1    
    34   18   33 1    
    35   18   34 1    
    36   18   35 1    
    37   19   36 1    
    38   19   37 1    
    39   19   38 1    
    40   20   39 1    
    41   21   40 1    
    42   23   41 1    
    43   24   42 1    
    44   25   26 2    
    45   25   43 1    
    46   26   44 1    
@<TRIPOS>SUBSTRUCTURE
     1 ****       11 TEMP              0 ****  ****    0 ROOT 
@<TRIPOS>NORMAL
@<TRIPOS>FF_PBC
FORCE_FIELD_SETUP_FEATURE Force Field Setup information
v1.0  0 0.000000 0.000000 0.000000 0.000000 0.000000 0.000000 NONE 0 0 0 0 1 0 0 0 0 0 0 0 0
