@<TRIPOS>MOLECULE
MOL000554
   54    56     1     1     0
SMALL
GASTEIGER


@<TRIPOS>ATOM
      1 C          -0.980528    2.739822    1.397851 C.ar      1 <1>         0.051495 
      2 C          -2.383280    3.213987    1.315014 C.ar      1 <1>        -0.016369 
      3 C          -3.130755    3.335036    2.434017 C.ar      1 <1>         0.105520 
      4 C          -2.545298    3.005175    3.759143 C.ar      1 <1>         0.132457 
      5 C          -1.248518    2.584244    3.845888 C.ar      1 <1>         0.105520 
      6 C          -0.434158    2.448403    2.610913 C.ar      1 <1>        -0.016369 
      7 O          -4.451342    3.774439    2.332909 O.3       1 <1>        -0.357199 
      8 O          -3.336005    3.133482    4.906136 O.3       1 <1>        -0.355395 
      9 O          -0.711149    2.284638    5.101152 O.3       1 <1>        -0.357199 
     10 C          -0.143130    2.579820    0.147831 C.2       1 <1>         0.294052 
     11 O          -0.320337    1.603294   -0.756861 O.3       1 <1>        -0.308753 
     12 O           0.757300    3.381440   -0.034939 O.2       1 <1>        -0.259223 
     13 C          -1.402235    0.685115   -0.486789 C.3       1 <1>         0.086172 
     14 C          -1.385146   -0.415178   -1.586076 C.3       1 <1>         0.113873 
     15 C          -2.587418   -1.398547   -1.512836 C.3       1 <1>         0.111923 
     16 C          -2.397412   -2.431189   -0.369599 C.3       1 <1>         0.114074 
     17 C          -1.028310   -3.133012   -0.542702 C.3       1 <1>         0.134511 
     18 C           0.089071   -2.059173   -0.579393 C.3       1 <1>         0.193754 
     19 O          -0.133415   -1.130997   -1.659501 O.3       1 <1>        -0.340139 
     20 O           1.327408   -2.732152   -0.849498 O.3       1 <1>        -0.309880 
     21 C           2.485345   -2.002808   -1.157516 C.ar      1 <1>         0.112353 
     22 C           3.574142   -2.673956   -1.911436 C.ar      1 <1>         0.132831 
     23 C           4.713199   -1.984812   -2.232690 C.ar      1 <1>         0.105529 
     24 C           4.864240   -0.565285   -1.822685 C.ar      1 <1>        -0.016375 
     25 C           3.877263    0.053561   -1.126305 C.ar      1 <1>         0.051309 
     26 C           2.640368   -0.689808   -0.782848 C.ar      1 <1>        -0.016003 
     27 O           3.426332   -4.013356   -2.290896 O.3       1 <1>        -0.355388 
     28 O           5.722880   -2.638498   -2.946146 O.3       1 <1>        -0.357199 
     29 C           4.011848    1.496548   -0.689499 C.2       1 <1>         0.291400 
     30 O           3.076620    2.023538    0.102739 O.3       1 <1>        -0.327488 
     31 O           4.966104    2.163716   -1.058612 O.2       1 <1>        -0.259427 
     32 O          -3.464955   -3.396899   -0.356616 O.3       1 <1>        -0.386401 
     33 O          -3.807357   -0.656421   -1.327316 O.3       1 <1>        -0.386488 
     34 O          -1.060884   -3.888373   -1.770301 O.3       1 <1>        -0.384091 
     35 H          -2.815895    3.471598    0.354231 H         1 <1>         0.065181 
     36 H           0.596006    2.112420    2.670327 H         1 <1>         0.065181 
     37 H          -4.870236    3.817630    3.187134 H         1 <1>         0.217423 
     38 H          -2.859805    2.901615    5.698407 H         1 <1>         0.217501 
     39 H           0.208527    2.044438    5.078604 H         1 <1>         0.217423 
     40 H          -1.310063    0.240736    0.514103 H         1 <1>         0.059272 
     41 H          -2.364070    1.217346   -0.546533 H         1 <1>         0.059272 
     42 H          -1.464900    0.131670   -2.541004 H         1 <1>         0.064694 
     43 H          -2.628044   -1.948876   -2.470074 H         1 <1>         0.064673 
     44 H          -2.439090   -1.909733    0.599205 H         1 <1>         0.064758 
     45 H          -0.858981   -3.820920    0.304266 H         1 <1>         0.067108 
     46 H           0.156964   -1.577198    0.407965 H         1 <1>         0.094161 
     47 H           5.768867   -0.024637   -2.079807 H         1 <1>         0.065181 
     48 H           1.869645   -0.166457   -0.232780 H         1 <1>         0.065190 
     49 H           4.179683   -4.335583   -2.776687 H         1 <1>         0.217502 
     50 H           6.473356   -2.089017   -3.142847 H         1 <1>         0.217423 
     51 H           3.219535    2.947010    0.281008 H         1 <1>         0.220555 
     52 H          -3.462705   -3.938899   -1.140629 H         1 <1>         0.210005 
     53 H          -4.570364   -1.226008   -1.277185 H         1 <1>         0.210004 
     54 H          -0.213022   -4.281825   -1.960134 H         1 <1>         0.210111 
@<TRIPOS>BOND
     1    1    2 1    
     2    1    6 2    
     3    1   10 1    
     4    2    3 2    
     5    2   35 1    
     6    3    4 1    
     7    3    7 1    
     8    4    5 2    
     9    4    8 1    
    10    5    6 1    
    11    5    9 1    
    12    6   36 1    
    13    7   37 1    
    14    8   38 1    
    15    9   39 1    
    16   10   11 1    
    17   10   12 2    
    18   11   13 1    
    19   13   14 1    
    20   13   40 1    
    21   13   41 1    
    22   14   15 1    
    23   14   19 1    
    24   14   42 1    
    25   15   16 1    
    26   15   33 1    
    27   15   43 1    
    28   16   17 1    
    29   16   32 1    
    30   16   44 1    
    31   17   18 1    
    32   17   34 1    
    33   17   45 1    
    34   18   19 1    
    35   18   20 1    
    36   18   46 1    
    37   20   21 1    
    38   21   22 1    
    39   21   26 2    
    40   22   23 2    
    41   22   27 1    
    42   23   24 1    
    43   23   28 1    
    44   24   25 2    
    45   24   47 1    
    46   25   26 1    
    47   25   29 1    
    48   26   48 1    
    49   27   49 1    
    50   28   50 1    
    51   29   30 1    
    52   29   31 2    
    53   30   51 1    
    54   32   52 1    
    55   33   53 1    
    56   34   54 1    
@<TRIPOS>SUBSTRUCTURE
     1 ****        1 TEMP              0 ****  ****    0 ROOT 
@<TRIPOS>NORMAL
@<TRIPOS>FF_PBC
FORCE_FIELD_SETUP_FEATURE Force Field Setup information
v1.0  0 0.000000 0.000000 0.000000 0.000000 0.000000 0.000000 NONE 0 0 0 0 1 0 0 0 0 0 0 0 0
