@<TRIPOS>MOLECULE
MOL001129
   25    26     1     1     0
SMALL
GASTEIGER


@<TRIPOS>ATOM
      1 C          -0.203977    0.447446   -0.790679 C.3       1 <1>        -0.013301 
      2 C          -0.300539   -0.980252   -0.177653 C.3       1 <1>        -0.018544 
      3 C          -1.278501   -0.338529    0.847573 C.3       1 <1>         0.027753 
      4 C          -0.471162    0.403063    1.888784 C.2       1 <1>         0.159646 
      5 C           0.593070    1.290325    1.371446 C.2       1 <1>        -0.019658 
      6 C           0.740917    1.303054    0.036526 C.2       1 <1>        -0.065698 
      7 C          -0.997436   -2.005047   -1.124688 C.3       1 <1>        -0.058616 
      8 C           1.012348   -1.617309    0.374137 C.3       1 <1>        -0.058616 
      9 C          -1.616349    0.743020   -0.213532 C.3       1 <1>        -0.035628 
     10 C           1.777631    2.111984   -0.699906 C.3       1 <1>        -0.043107 
     11 O          -0.683073    0.278945    3.083766 O.2       1 <1>        -0.292366 
     12 H          -0.097518    0.516238   -1.885113 H         1 <1>         0.035120 
     13 H          -2.109520   -0.954858    1.224457 H         1 <1>         0.038625 
     14 H           1.210065    1.877080    2.050551 H         1 <1>         0.065191 
     15 H          -1.226673   -2.923724   -0.563670 H         1 <1>         0.023536 
     16 H          -0.316055   -2.262210   -1.949815 H         1 <1>         0.023536 
     17 H          -1.934886   -1.647569   -1.570264 H         1 <1>         0.023536 
     18 H           0.761833   -2.541624    0.916152 H         1 <1>         0.023536 
     19 H           1.595704   -0.987966    1.057574 H         1 <1>         0.023536 
     20 H           1.668078   -1.874842   -0.471158 H         1 <1>         0.023536 
     21 H          -2.439807    0.459923   -0.886579 H         1 <1>         0.027810 
     22 H          -1.793428    1.766263    0.159876 H         1 <1>         0.027810 
     23 H           2.409250    2.690390   -0.008785 H         1 <1>         0.027455 
     24 H           1.278135    2.810709   -1.387610 H         1 <1>         0.027455 
     25 H           2.421991    1.435590   -1.281385 H         1 <1>         0.027455 
@<TRIPOS>BOND
     1    1    2 1    
     2    1    6 1    
     3    1    9 1    
     4    1   12 1    
     5    2    3 1    
     6    2    7 1    
     7    2    8 1    
     8    3    4 1    
     9    3    9 1    
    10    3   13 1    
    11    4    5 1    
    12    4   11 2    
    13    5    6 2    
    14    5   14 1    
    15    6   10 1    
    16    7   15 1    
    17    7   16 1    
    18    7   17 1    
    19    8   18 1    
    20    8   19 1    
    21    8   20 1    
    22    9   21 1    
    23    9   22 1    
    24   10   23 1    
    25   10   24 1    
    26   10   25 1    
@<TRIPOS>SUBSTRUCTURE
     1 ****        1 TEMP              0 ****  ****    0 ROOT 
@<TRIPOS>NORMAL
@<TRIPOS>FF_PBC
FORCE_FIELD_SETUP_FEATURE Force Field Setup information
v1.0  0 0.000000 0.000000 0.000000 0.000000 0.000000 0.000000 NONE 0 0 0 0 1 0 0 0 0 0 0 0 0
