@<TRIPOS>MOLECULE
MOL001602
   39    40     1     1     0
SMALL
GASTEIGER


@<TRIPOS>ATOM
      1 C          -0.711326   -0.667965   -0.577984 C.3       1 <1>        -0.028706 
      2 C          -2.080360    0.051626   -0.789409 C.3       1 <1>        -0.048622 
      3 C          -1.928282    1.590445   -0.889267 C.3       1 <1>        -0.046459 
      4 C          -1.291971    2.166121    0.398016 C.3       1 <1>        -0.022146 
      5 C           0.039589    1.452155    0.556441 C.2       1 <1>        -0.063239 
      6 C           1.213761    2.097189    0.546884 C.2       1 <1>        -0.079958 
      7 C           2.540090    1.407384    0.703105 C.3       1 <1>        -0.013497 
      8 C           2.436790   -0.036644    1.102066 C.2       1 <1>        -0.072231 
      9 C           1.260359   -0.675069    1.129983 C.2       1 <1>        -0.077360 
     10 C          -0.055246   -0.052856    0.709039 C.3       1 <1>         0.001726 
     11 C           3.746005   -0.705592    1.469943 C.3       1 <1>        -0.043477 
     12 C          -1.274222    3.718075    0.326371 C.3       1 <1>        -0.058683 
     13 C          -0.876104   -2.236029   -0.526320 C.3       1 <1>        -0.043063 
     14 C           0.410234   -2.998047   -0.969598 C.3       1 <1>        -0.062386 
     15 C          -2.037855   -2.804352   -1.404347 C.3       1 <1>        -0.062386 
     16 H          -0.067717   -0.427822   -1.443746 H         1 <1>         0.031198 
     17 H          -2.554407   -0.259164   -1.731957 H         1 <1>         0.026847 
     18 H          -2.758760   -0.198940    0.041354 H         1 <1>         0.026847 
     19 H          -2.922210    2.044481   -1.046670 H         1 <1>         0.027098 
     20 H          -1.293463    1.846065   -1.754870 H         1 <1>         0.027098 
     21 H          -1.923215    1.900552    1.263427 H         1 <1>         0.034311 
     22 H           1.278723    3.173781    0.421575 H         1 <1>         0.057505 
     23 H           3.109469    1.495885   -0.233810 H         1 <1>         0.035230 
     24 H           3.092586    1.932830    1.498678 H         1 <1>         0.035230 
     25 H           1.236442   -1.703795    1.484486 H         1 <1>         0.057768 
     26 H          -0.723065   -0.239670    1.564813 H         1 <1>         0.039096 
     27 H           3.618800   -1.761342    1.752874 H         1 <1>         0.027445 
     28 H           4.222862   -0.177261    2.310362 H         1 <1>         0.027445 
     29 H           4.422707   -0.663191    0.600849 H         1 <1>         0.027445 
     30 H          -0.838477    4.141085    1.243778 H         1 <1>         0.023544 
     31 H          -2.302798    4.102606    0.234880 H         1 <1>         0.023544 
     32 H          -0.704146    4.074312   -0.545220 H         1 <1>         0.023544 
     33 H          -1.109505   -2.507801    0.520256 H         1 <1>         0.029841 
     34 H           0.394773   -4.028312   -0.578625 H         1 <1>         0.023242 
     35 H           0.459852   -3.058464   -2.066443 H         1 <1>         0.023242 
     36 H           1.347877   -2.535548   -0.646506 H         1 <1>         0.023242 
     37 H          -3.025878   -2.497499   -1.027185 H         1 <1>         0.023242 
     38 H          -2.018126   -3.906261   -1.397408 H         1 <1>         0.023242 
     39 H          -1.935319   -2.475551   -2.450433 H         1 <1>         0.023242 
@<TRIPOS>BOND
     1    1    2 1    
     2    1   10 1    
     3    1   13 1    
     4    1   16 1    
     5    2    3 1    
     6    2   17 1    
     7    2   18 1    
     8    3    4 1    
     9    3   19 1    
    10    3   20 1    
    11    4    5 1    
    12    4   12 1    
    13    4   21 1    
    14    5    6 2    
    15    5   10 1    
    16    6    7 1    
    17    6   22 1    
    18    7    8 1    
    19    7   23 1    
    20    7   24 1    
    21    8    9 2    
    22    8   11 1    
    23    9   10 1    
    24    9   25 1    
    25   10   26 1    
    26   11   27 1    
    27   11   28 1    
    28   11   29 1    
    29   12   30 1    
    30   12   31 1    
    31   12   32 1    
    32   13   14 1    
    33   13   15 1    
    34   13   33 1    
    35   14   34 1    
    36   14   35 1    
    37   14   36 1    
    38   15   37 1    
    39   15   38 1    
    40   15   39 1    
@<TRIPOS>SUBSTRUCTURE
     1 ****        1 TEMP              0 ****  ****    0 ROOT 
@<TRIPOS>NORMAL
@<TRIPOS>FF_PBC
FORCE_FIELD_SETUP_FEATURE Force Field Setup information
v1.0  0 0.000000 0.000000 0.000000 0.000000 0.000000 0.000000 NONE 0 0 0 0 1 0 0 0 0 0 0 0 0
