@<TRIPOS>MOLECULE
MOL002197
   29    28     1     1     0
SMALL
GASTEIGER


@<TRIPOS>ATOM
      1 C          -6.853855   -0.397465   -0.000018 C.2       1 <1>        -0.098692 
      2 C          -5.692590    0.268316   -0.000030 C.2       1 <1>        -0.068867 
      3 C          -4.379349   -0.410468   -0.000006 C.2       1 <1>        -0.062316 
      4 C          -3.215415    0.252745   -0.000018 C.2       1 <1>        -0.062070 
      5 C          -1.901458   -0.425038    0.000019 C.2       1 <1>        -0.065688 
      6 C          -0.737531    0.238114    0.000062 C.2       1 <1>        -0.084007 
      7 C           0.588737   -0.485217    0.000128 C.3       1 <1>        -0.034468 
      8 C           1.789751    0.498985   -0.000115 C.3       1 <1>        -0.049615 
      9 C           3.146301   -0.257858    0.000071 C.3       1 <1>        -0.053028 
     10 C           4.344797    0.730105   -0.000151 C.3       1 <1>        -0.055902 
     11 C           5.699496   -0.025177    0.000080 C.3       1 <1>        -0.065276 
     12 H          -7.804122    0.137412   -0.000033 H         1 <1>         0.053481 
     13 H          -6.883372   -1.486754    0.000007 H         1 <1>         0.053481 
     14 H          -5.721717    1.359290   -0.000055 H         1 <1>         0.061180 
     15 H          -4.364975   -1.501004    0.000024 H         1 <1>         0.061741 
     16 H          -3.232726    1.343166   -0.000051 H         1 <1>         0.061749 
     17 H          -1.876559   -1.515524    0.000020 H         1 <1>         0.061448 
     18 H          -0.745888    1.328971    0.000063 H         1 <1>         0.057204 
     19 H           0.640562   -1.127187    0.894302 H         1 <1>         0.030741 
     20 H           0.640495   -1.127557   -0.893788 H         1 <1>         0.030741 
     21 H           1.729717    1.141531   -0.894255 H         1 <1>         0.026822 
     22 H           1.729729    1.141955    0.893721 H         1 <1>         0.026822 
     23 H           3.205428   -0.901036    0.893572 H         1 <1>         0.026529 
     24 H           3.205441   -0.901463   -0.893123 H         1 <1>         0.026529 
     25 H           4.292125    1.374383   -0.893753 H         1 <1>         0.026265 
     26 H           4.292083    1.374837    0.893125 H         1 <1>         0.026265 
     27 H           6.534292    0.693613   -0.000087 H         1 <1>         0.022978 
     28 H           5.785230   -0.660708    0.895250 H         1 <1>         0.022978 
     29 H           5.785273   -0.661174   -0.894758 H         1 <1>         0.022978 
@<TRIPOS>BOND
     1    1    2 2    
     2    1   12 1    
     3    1   13 1    
     4    2    3 1    
     5    2   14 1    
     6    3    4 2    
     7    3   15 1    
     8    4    5 1    
     9    4   16 1    
    10    5    6 2    
    11    5   17 1    
    12    6    7 1    
    13    6   18 1    
    14    7    8 1    
    15    7   19 1    
    16    7   20 1    
    17    8    9 1    
    18    8   21 1    
    19    8   22 1    
    20    9   10 1    
    21    9   23 1    
    22    9   24 1    
    23   10   11 1    
    24   10   25 1    
    25   10   26 1    
    26   11   27 1    
    27   11   28 1    
    28   11   29 1    
@<TRIPOS>SUBSTRUCTURE
     1 ****        1 TEMP              0 ****  ****    0 ROOT 
@<TRIPOS>NORMAL
@<TRIPOS>FF_PBC
FORCE_FIELD_SETUP_FEATURE Force Field Setup information
v1.0  0 0.000000 0.000000 0.000000 0.000000 0.000000 0.000000 NONE 0 0 0 0 1 0 0 0 0 0 0 0 0
