@<TRIPOS>MOLECULE
MOL001543
   72    76     1     1     0
SMALL
GASTEIGER


@<TRIPOS>ATOM
      1 O          -6.341283   -0.703438   -0.997425 O.3       1 <1>        -0.361023 
      2 O          -2.516725    0.135424    4.880312 O.3       1 <1>        -0.361023 
      3 O          -5.547003   -3.393235   -1.458877 O.3       1 <1>        -0.386221 
      4 O          -1.475823    2.601634    3.884620 O.3       1 <1>        -0.386221 
      5 O          -8.110163   -3.750403    0.959433 O.3       1 <1>        -0.386477 
      6 O          -4.848343    3.401583    4.933096 O.3       1 <1>        -0.386477 
      7 O          -9.202231   -2.320020   -2.082304 O.3       1 <1>        -0.386490 
      8 O          -2.338704    2.428443    7.330890 O.3       1 <1>        -0.386490 
      9 O          -8.281015   -1.434397    1.965864 O.3       1 <1>        -0.307351 
     10 O          -3.422627   -0.546143    1.286068 O.3       1 <1>        -0.358948 
     11 O          -5.732327    1.182873    5.245001 O.3       1 <1>        -0.358595 
     12 O          -9.210284    1.414350   -1.067614 O.3       1 <1>        -0.392367 
     13 O          -5.248553   -0.199141    7.356365 O.3       1 <1>        -0.392367 
     14 O          -8.189182    0.423781    5.557449 O.2       1 <1>        -0.287017 
     15 O         -14.730707   -2.673008    0.693738 O.3       1 <1>        -0.359832 
     16 C          -5.814853   -1.513528    0.054944 C.3       1 <1>         0.117298 
     17 C          -3.117911    0.824579    3.770402 C.3       1 <1>         0.117274 
     18 C          -6.173069   -2.991609   -0.219045 C.3       1 <1>         0.113849 
     19 C          -2.903482    2.353093    3.915426 C.3       1 <1>         0.113849 
     20 C          -7.709188   -3.189574   -0.300756 C.3       1 <1>         0.112059 
     21 C          -3.522302    2.913249    5.221357 C.3       1 <1>         0.112059 
     22 C          -8.553402   -1.969847   -0.833031 C.3       1 <1>         0.111744 
     23 C          -3.392490    1.948471    6.456683 C.3       1 <1>         0.111744 
     24 C          -7.770302   -0.623526   -1.045173 C.3       1 <1>         0.110816 
     25 C          -3.098752    0.428521    6.161743 C.3       1 <1>         0.110816 
     26 C          -5.879437   -0.925607    1.497096 C.ar      1 <1>         0.045039 
     27 C          -4.500671    0.309881    3.270705 C.ar      1 <1>         0.044269 
     28 C          -4.590814   -0.372191    2.034212 C.ar      1 <1>         0.088992 
     29 C          -7.035801   -0.863951    2.331382 C.ar      1 <1>         0.104556 
     30 C          -5.745074    0.460363    4.062870 C.ar      1 <1>         0.094068 
     31 C          -6.927394   -0.147562    3.618181 C.ar      1 <1>         0.082655 
     32 C          -8.261526    0.655966   -0.294722 C.3       1 <1>         0.072938 
     33 C          -4.158741   -0.661990    6.539058 C.3       1 <1>         0.072938 
     34 C          -8.180532   -0.081944    4.449810 C.2       1 <1>         0.193529 
     35 C          -9.429010   -1.229661    2.681946 C.2       1 <1>         0.093878 
     36 C          -9.402482   -0.628009    3.877347 C.2       1 <1>         0.016919 
     37 C         -10.805658   -1.640747    2.182974 C.ar      1 <1>         0.005751 
     38 C         -11.884825   -0.736961    2.302317 C.ar      1 <1>        -0.049682 
     39 C         -11.087122   -2.963436    1.565860 C.ar      1 <1>        -0.049682 
     40 C         -13.242266   -1.088131    1.818400 C.ar      1 <1>        -0.031304 
     41 C         -12.354882   -3.280871    1.067591 C.ar      1 <1>        -0.031304 
     42 C         -13.472236   -2.324389    1.192183 C.ar      1 <1>         0.072619 
     43 H          -4.761929   -1.500376   -0.255262 H         1 <1>         0.067491 
     44 H          -2.383169    0.583137    2.990660 H         1 <1>         0.067491 
     45 H          -5.736645   -3.609169    0.586624 H         1 <1>         0.064945 
     46 H          -3.354956    2.856184    3.043689 H         1 <1>         0.064945 
     47 H          -7.900175   -4.038312   -0.979152 H         1 <1>         0.064684 
     48 H          -2.969336    3.840974    5.445623 H         1 <1>         0.064684 
     49 H          -9.385301   -1.761099   -0.145498 H         1 <1>         0.064671 
     50 H          -4.315405    2.036353    7.050630 H         1 <1>         0.064671 
     51 H          -7.897937   -0.351687   -2.105760 H         1 <1>         0.064591 
     52 H          -2.255833    0.182476    6.830556 H         1 <1>         0.064591 
     53 H          -8.695894    0.473362    0.694934 H         1 <1>         0.058369 
     54 H          -7.399787    1.328107   -0.148260 H         1 <1>         0.058369 
     55 H          -3.693506   -1.524173    7.048958 H         1 <1>         0.058369 
     56 H          -4.579184   -1.090665    5.620180 H         1 <1>         0.058369 
     57 H          -5.659163   -4.313307   -1.678582 H         1 <1>         0.210016 
     58 H          -1.232405    3.522572    3.845532 H         1 <1>         0.210016 
     59 H          -7.961637   -3.153026    1.685205 H         1 <1>         0.210004 
     60 H          -5.290919    3.800888    5.675346 H         1 <1>         0.210004 
     61 H          -9.807411   -3.054957   -2.025408 H         1 <1>         0.210004 
     62 H          -2.458369    3.313128    7.665218 H         1 <1>         0.210004 
     63 H          -2.987905   -1.361631    1.522545 H         1 <1>         0.217342 
     64 H          -6.380162    0.905901    5.885434 H         1 <1>         0.217355 
     65 H         -10.300210   -0.507339    4.485308 H         1 <1>         0.068219 
     66 H         -10.002895    0.926477   -1.269502 H         1 <1>         0.209508 
     67 H          -4.967160    0.070554    8.225310 H         1 <1>         0.209508 
     68 H         -11.749784    0.247644    2.741615 H         1 <1>         0.062503 
     69 H         -10.317929   -3.717149    1.500372 H         1 <1>         0.062503 
     70 H         -14.045868   -0.371990    1.952826 H         1 <1>         0.064339 
     71 H         -12.530710   -4.241092    0.598117 H         1 <1>         0.064339 
     72 H         -15.379394   -1.980827    0.755447 H         1 <1>         0.217313 
@<TRIPOS>BOND
     1   16    1 1    
     2    1   24 1    
     3   17    2 1    
     4    2   25 1    
     5   18    3 1    
     6    3   57 1    
     7   19    4 1    
     8    4   58 1    
     9   20    5 1    
    10    5   59 1    
    11   21    6 1    
    12    6   60 1    
    13   22    7 1    
    14    7   61 1    
    15   23    8 1    
    16    8   62 1    
    17    9   29 1    
    18   35    9 1    
    19   28   10 1    
    20   10   63 1    
    21   30   11 1    
    22   11   64 1    
    23   32   12 1    
    24   12   66 1    
    25   33   13 1    
    26   13   67 1    
    27   34   14 2    
    28   42   15 1    
    29   15   72 1    
    30   16   18 1    
    31   26   16 1    
    32   16   43 1    
    33   17   19 1    
    34   27   17 1    
    35   17   44 1    
    36   18   20 1    
    37   18   45 1    
    38   19   21 1    
    39   19   46 1    
    40   20   22 1    
    41   20   47 1    
    42   21   23 1    
    43   21   48 1    
    44   24   22 1    
    45   22   49 1    
    46   25   23 1    
    47   23   50 1    
    48   24   32 1    
    49   24   51 1    
    50   25   33 1    
    51   25   52 1    
    52   26   28 1    
    53   29   26 2    
    54   28   27 2    
    55   30   27 1    
    56   29   31 1    
    57   31   30 2    
    58   34   31 1    
    59   32   53 1    
    60   32   54 1    
    61   33   55 1    
    62   33   56 1    
    63   36   34 1    
    64   35   36 2    
    65   37   35 1    
    66   36   65 1    
    67   38   37 2    
    68   37   39 1    
    69   40   38 1    
    70   38   68 1    
    71   39   41 2    
    72   39   69 1    
    73   40   42 2    
    74   40   70 1    
    75   41   42 1    
    76   41   71 1    
@<TRIPOS>SUBSTRUCTURE
     1 ****        2 TEMP              0 ****  ****    0 ROOT 
@<TRIPOS>NORMAL
@<TRIPOS>FF_PBC
FORCE_FIELD_SETUP_FEATURE Force Field Setup information
v1.0  0 0.000000 0.000000 0.000000 0.000000 0.000000 0.000000 NONE 0 0 0 0 1 0 0 0 0 0 0 0 0
