@<TRIPOS>MOLECULE
MOL002281
   32    34     1     1     0
SMALL
GASTEIGER


@<TRIPOS>ATOM
      1 C           3.346114   -1.046390   -0.033272 C.ar      1 <1>        -0.001222 
      2 C           3.343428    0.435912   -0.056637 C.ar      1 <1>         0.078847 
      3 C           2.156701    1.118889   -0.049164 C.ar      1 <1>        -0.023713 
      4 C           0.867636    0.384843   -0.016258 C.ar      1 <1>        -0.009916 
      5 C           0.879067   -1.099056    0.008317 C.ar      1 <1>         0.042479 
      6 C           2.194433   -1.789884   -0.002461 C.ar      1 <1>         0.085194 
      7 C          -0.313602    1.058692   -0.008218 C.ar      1 <1>        -0.045728 
      8 C          -1.593165    0.312686    0.026778 C.ar      1 <1>        -0.006929 
      9 C          -1.597216   -1.026594    0.049844 C.ar      1 <1>         0.084339 
     10 C          -0.322360   -1.791376    0.040317 C.ar      1 <1>         0.096161 
     11 C          -2.924579    1.025921    0.038321 C.2       1 <1>        -0.027489 
     12 C          -4.068275    0.326932    0.071973 C.2       1 <1>         0.061313 
     13 O          -4.085976   -1.014773    0.095690 O.3       1 <1>        -0.278526 
     14 C          -2.943399   -1.710876    0.085967 C.2       1 <1>         0.301562 
     15 O          -2.991060   -2.930092    0.107008 O.2       1 <1>        -0.258724 
     16 O          -0.328294   -3.189009    0.063355 O.3       1 <1>        -0.358342 
     17 O           2.245801   -3.188487    0.018637 O.3       1 <1>        -0.359059 
     18 C          -5.440550    0.949792    0.087087 C.3       1 <1>        -0.017380 
     19 O           4.582584    1.092319   -0.086037 O.3       1 <1>        -0.347811 
     20 C           4.708511    2.524264   -0.092632 C.3       1 <1>         0.043028 
     21 H           4.311077   -1.540493   -0.041574 H         1 <1>         0.066929 
     22 H           2.133458    2.200894   -0.066715 H         1 <1>         0.064939 
     23 H          -0.331264    2.143405   -0.026821 H         1 <1>         0.062974 
     24 H          -2.938961    2.115164    0.019249 H         1 <1>         0.064616 
     25 H          -1.197813   -3.576168    0.083047 H         1 <1>         0.217367 
     26 H           3.116352   -3.569305    0.027794 H         1 <1>         0.217341 
     27 H          -5.399950    2.049051    0.058017 H         1 <1>         0.029715 
     28 H          -6.008598    0.595958   -0.786250 H         1 <1>         0.029715 
     29 H          -5.967439    0.641573    1.002497 H         1 <1>         0.029715 
     30 H           5.781567    2.765459   -0.109795 H         1 <1>         0.052870 
     31 H           4.242832    2.959274   -0.990237 H         1 <1>         0.052870 
     32 H           4.270041    2.964575    0.816074 H         1 <1>         0.052870 
@<TRIPOS>BOND
     1    1    2 1    
     2    1    6 2    
     3    1   21 1    
     4    2    3 2    
     5    2   19 1    
     6    3    4 1    
     7    3   22 1    
     8    4    5 1    
     9    4    7 2    
    10    5    6 1    
    11    5   10 2    
    12    6   17 1    
    13    7    8 1    
    14    7   23 1    
    15    8    9 2    
    16    8   11 1    
    17    9   10 1    
    18    9   14 1    
    19   10   16 1    
    20   11   12 2    
    21   11   24 1    
    22   12   13 1    
    23   12   18 1    
    24   13   14 1    
    25   14   15 2    
    26   16   25 1    
    27   17   26 1    
    28   18   27 1    
    29   18   28 1    
    30   18   29 1    
    31   19   20 1    
    32   20   30 1    
    33   20   31 1    
    34   20   32 1    
@<TRIPOS>SUBSTRUCTURE
     1 ****        1 TEMP              0 ****  ****    0 ROOT 
@<TRIPOS>NORMAL
@<TRIPOS>FF_PBC
FORCE_FIELD_SETUP_FEATURE Force Field Setup information
v1.0  0 0.000000 0.000000 0.000000 0.000000 0.000000 0.000000 NONE 0 0 0 0 1 0 0 0 0 0 0 0 0
