@<TRIPOS>MOLECULE
MOL004845
  117   123     1     1     0
SMALL
GASTEIGER


@<TRIPOS>ATOM
      1 C          -7.092922   -5.175301   -1.891656 C.3       1 <1>        -0.038057 
      2 C          -5.678895   -5.787851   -2.049154 C.3       1 <1>        -0.046118 
      3 C          -4.525270   -4.807634   -1.655958 C.3       1 <1>        -0.025442 
      4 C          -4.657066   -3.492960   -2.479606 C.3       1 <1>        -0.012608 
      5 C          -6.089426   -2.881782   -2.374800 C.3       1 <1>        -0.031522 
      6 C          -7.242840   -3.880180   -2.745303 C.3       1 <1>         0.053721 
      7 C          -3.172585   -5.470994   -2.067781 C.3       1 <1>        -0.046277 
      8 C          -1.937742   -4.536957   -1.913601 C.3       1 <1>        -0.042869 
      9 C          -2.055315   -3.109118   -2.553125 C.3       1 <1>        -0.004332 
     10 C          -3.460570   -2.532650   -2.385198 C.2       1 <1>        -0.056185 
     11 C          -0.958383   -2.145361   -1.878587 C.3       1 <1>        -0.012656 
     12 C          -1.003505   -0.700470   -2.479450 C.3       1 <1>         0.033332 
     13 C          -2.445909   -0.248268   -2.307825 C.2       1 <1>         0.160199 
     14 C          -3.577127   -1.204871   -2.235806 C.2       1 <1>        -0.018839 
     15 C           0.487322   -2.733835   -2.100324 C.3       1 <1>        -0.045876 
     16 C           1.704489   -1.755272   -1.999006 C.3       1 <1>        -0.048587 
     17 C           1.358052   -0.393483   -1.342525 C.3       1 <1>        -0.027436 
     18 C           0.190441    0.321093   -2.134114 C.3       1 <1>        -0.018250 
     19 C           2.589520    0.476621   -0.842464 C.3       1 <1>        -0.005219 
     20 C           2.005293    1.639822    0.028091 C.3       1 <1>         0.067175 
     21 C           0.928276    2.448632   -0.738230 C.3       1 <1>        -0.025459 
     22 C          -0.238045    1.554921   -1.261478 C.3       1 <1>        -0.044320 
     23 C           3.118874    2.728554    1.905771 C.3       1 <1>         0.189107 
     24 O           3.302856    1.410687    2.468373 O.3       1 <1>        -0.332678 
     25 C           4.201161    1.357854    3.591807 C.3       1 <1>         0.174377 
     26 C           5.636124    1.799434    3.181771 C.3       1 <1>         0.119040 
     27 C           5.598357    2.950681    2.131144 C.3       1 <1>         0.114864 
     28 C           4.264841    3.723527    2.262420 C.3       1 <1>         0.140651 
     29 O           3.813815    6.420816    3.262358 O.3       1 <1>        -0.345676 
     30 C           3.294903    5.245712    3.900286 C.3       1 <1>         0.188494 
     31 C           3.295274    5.566090    5.421052 C.3       1 <1>         0.138725 
     32 C           4.016983    6.942450    5.495575 C.3       1 <1>         0.142478 
     33 C           4.786512    6.980680    4.151728 C.3       1 <1>         0.084283 
     34 C          -8.600905   -3.191570   -2.406312 C.3       1 <1>        -0.050480 
     35 C          -4.577047   -4.566166   -0.113717 C.3       1 <1>        -0.059016 
     36 C          -1.982861   -3.229903   -4.125815 C.3       1 <1>        -0.055302 
     37 C          -1.286084   -2.004647   -0.341634 C.3       1 <1>        -0.058099 
     38 O          -2.735636    0.931790   -2.237625 O.2       1 <1>        -0.292347 
     39 C           0.645909    0.906746   -3.519246 C.3       1 <1>        -0.058618 
     40 C           3.518638   -0.372952    0.097441 C.3       1 <1>        -0.057181 
     41 C           3.552015    1.020013   -1.953631 C.3       1 <1>        -0.057181 
     42 O           3.046951    2.548254    0.470321 O.3       1 <1>        -0.344868 
     43 O           4.233739    4.184805    3.635082 O.3       1 <1>        -0.337758 
     44 O           6.350182    0.662974    2.656775 O.3       1 <1>        -0.386033 
     45 O           5.796271    2.419504    0.804138 O.3       1 <1>        -0.386378 
     46 O           1.950204    5.569358    5.941747 O.3       1 <1>        -0.383740 
     47 O           4.899789    7.090472    6.629425 O.3       1 <1>        -0.381246 
     48 C           2.959205    8.082383    5.544881 C.3       1 <1>         0.077754 
     49 O           2.234025    8.022290    6.791104 O.3       1 <1>        -0.392006 
     50 C          -7.251761   -4.178646   -4.246280 C.2       1 <1>         0.265560 
     51 C           4.282364   -0.038995    4.157094 C.2       1 <1>         0.291467 
     52 O           3.721098   -0.996808    3.647901 O.2       1 <1>        -0.262180 
     53 O           5.016839   -0.153499    5.267929 O.3       1 <1>        -0.329249 
     54 H          -7.830268   -5.939236   -2.182045 H         1 <1>         0.027550 
     55 H          -7.302704   -4.946850   -0.838044 H         1 <1>         0.027550 
     56 H          -5.578078   -6.102603   -3.099392 H         1 <1>         0.027098 
     57 H          -5.613056   -6.697717   -1.431154 H         1 <1>         0.027098 
     58 H          -4.622139   -3.820668   -3.523055 H         1 <1>         0.035146 
     59 H          -6.191605   -2.025991   -3.064110 H         1 <1>         0.028121 
     60 H          -6.215890   -2.499094   -1.351594 H         1 <1>         0.028121 
     61 H          -3.016349   -6.374850   -1.452345 H         1 <1>         0.027096 
     62 H          -3.222200   -5.816831   -3.115168 H         1 <1>         0.027096 
     63 H          -1.075300   -5.056485   -2.359000 H         1 <1>         0.027392 
     64 H          -1.736633   -4.484970   -0.838535 H         1 <1>         0.027392 
     65 H          -0.932678   -0.901558   -3.554999 H         1 <1>         0.039170 
     66 H          -4.544378   -0.729926   -2.075205 H         1 <1>         0.065218 
     67 H           0.628766   -3.574147   -1.401377 H         1 <1>         0.027107 
     68 H           0.599502   -3.181879   -3.092438 H         1 <1>         0.027107 
     69 H           2.159641   -1.555599   -2.980890 H         1 <1>         0.026846 
     70 H           2.471187   -2.295133   -1.425396 H         1 <1>         0.026846 
     71 H           0.931663   -0.707402   -0.387177 H         1 <1>         0.031221 
     72 H           1.478490    1.181718    0.882368 H         1 <1>         0.060224 
     73 H           1.398442    3.022504   -1.546214 H         1 <1>         0.029047 
     74 H           0.517093    3.199879   -0.042873 H         1 <1>         0.029047 
     75 H          -0.878185    2.242667   -1.835705 H         1 <1>         0.027160 
     76 H          -0.808341    1.223921   -0.383036 H         1 <1>         0.027160 
     77 H           2.158696    3.135667    2.260961 H         1 <1>         0.093773 
     78 H           3.789547    1.981446    4.400247 H         1 <1>         0.072940 
     79 H           6.158726    2.136538    4.096735 H         1 <1>         0.065129 
     80 H           6.435793    3.640563    2.336745 H         1 <1>         0.064781 
     81 H           4.262102    4.570865    1.558981 H         1 <1>         0.067477 
     82 H           2.269819    5.046663    3.552990 H         1 <1>         0.093755 
     83 H           3.890482    4.801823    5.947926 H         1 <1>         0.067462 
     84 H           5.084195    7.995337    3.848279 H         1 <1>         0.059107 
     85 H           5.685754    6.342983    4.189001 H         1 <1>         0.059107 
     86 H          -8.608552   -2.777905   -1.385118 H         1 <1>         0.023986 
     87 H          -8.798817   -2.365619   -3.107540 H         1 <1>         0.023986 
     88 H          -9.433644   -3.905625   -2.473438 H         1 <1>         0.023986 
     89 H          -3.758877   -3.932300    0.230392 H         1 <1>         0.023525 
     90 H          -4.497165   -5.524521    0.423226 H         1 <1>         0.023525 
     91 H          -5.499305   -4.076269    0.220182 H         1 <1>         0.023525 
     92 H          -0.986711   -3.434067   -4.526051 H         1 <1>         0.023829 
     93 H          -2.600081   -4.051728   -4.511037 H         1 <1>         0.023829 
     94 H          -2.349739   -2.318390   -4.626762 H         1 <1>         0.023829 
     95 H          -2.326975   -2.242579   -0.117048 H         1 <1>         0.023553 
     96 H          -0.659029   -2.655861    0.282214 H         1 <1>         0.023553 
     97 H          -1.192456   -0.989212    0.051620 H         1 <1>         0.023553 
     98 H           1.307484    1.769143   -3.466828 H         1 <1>         0.023535 
     99 H           1.140703    0.154622   -4.150574 H         1 <1>         0.023535 
    100 H          -0.236364    1.272255   -4.070351 H         1 <1>         0.023535 
    101 H           4.264947    0.266630    0.586816 H         1 <1>         0.023587 
    102 H           4.106556   -1.116747   -0.455959 H         1 <1>         0.023587 
    103 H           2.959280   -0.891391    0.890651 H         1 <1>         0.023587 
    104 H           3.727558    0.252289   -2.718871 H         1 <1>         0.023587 
    105 H           3.222527    1.938294   -2.443929 H         1 <1>         0.023587 
    106 H           4.533421    1.287005   -1.533961 H         1 <1>         0.023587 
    107 H           7.210831    0.894571    2.324203 H         1 <1>         0.210020 
    108 H           5.744281    3.078892    0.119403 H         1 <1>         0.210005 
    109 H           1.919059    5.892461    6.840006 H         1 <1>         0.210125 
    110 H           5.583080    6.429793    6.684493 H         1 <1>         0.210475 
    111 H           3.476150    9.052861    5.468708 H         1 <1>         0.058733 
    112 H           2.260134    7.986476    4.695930 H         1 <1>         0.058733 
    113 H           1.586793    8.715779    6.880054 H         1 <1>         0.209522 
    114 O          -6.472395   -3.630755   -5.012305 O.2       1 <1>        -0.264567 
    115 O          -8.135310   -5.028557   -4.785182 O.3       1 <1>        -0.330857 
    116 H          -8.771716   -5.412120   -4.197541 H         1 <1>         0.220226 
    117 H           5.048567   -1.053868    5.575652 H         1 <1>         0.220293 
@<TRIPOS>BOND
     1    2    1 1    
     2    6    1 1    
     3    1   54 1    
     4    1   55 1    
     5    3    2 1    
     6    2   56 1    
     7    2   57 1    
     8    4    3 1    
     9    7    3 1    
    10    3   35 1    
    11    4    5 1    
    12   10    4 1    
    13    4   58 1    
    14    5    6 1    
    15    5   59 1    
    16    5   60 1    
    17    6   34 1    
    18    6   50 1    
    19    8    7 1    
    20    7   61 1    
    21    7   62 1    
    22    9    8 1    
    23    8   63 1    
    24    8   64 1    
    25    9   10 1    
    26   11    9 1    
    27    9   36 1    
    28   14   10 2    
    29   12   11 1    
    30   15   11 1    
    31   11   37 1    
    32   12   13 1    
    33   18   12 1    
    34   12   65 1    
    35   13   14 1    
    36   13   38 2    
    37   14   66 1    
    38   16   15 1    
    39   15   67 1    
    40   15   68 1    
    41   17   16 1    
    42   16   69 1    
    43   16   70 1    
    44   17   18 1    
    45   19   17 1    
    46   17   71 1    
    47   22   18 1    
    48   18   39 1    
    49   20   19 1    
    50   19   40 1    
    51   19   41 1    
    52   20   21 1    
    53   42   20 1    
    54   20   72 1    
    55   21   22 1    
    56   21   73 1    
    57   21   74 1    
    58   22   75 1    
    59   22   76 1    
    60   23   24 1    
    61   28   23 1    
    62   23   42 1    
    63   23   77 1    
    64   24   25 1    
    65   26   25 1    
    66   25   51 1    
    67   25   78 1    
    68   27   26 1    
    69   26   44 1    
    70   26   79 1    
    71   28   27 1    
    72   27   45 1    
    73   27   80 1    
    74   43   28 1    
    75   28   81 1    
    76   30   29 1    
    77   29   33 1    
    78   30   31 1    
    79   30   43 1    
    80   30   82 1    
    81   31   32 1    
    82   31   46 1    
    83   31   83 1    
    84   32   33 1    
    85   32   47 1    
    86   32   48 1    
    87   33   84 1    
    88   33   85 1    
    89   34   86 1    
    90   34   87 1    
    91   34   88 1    
    92   35   89 1    
    93   35   90 1    
    94   35   91 1    
    95   36   92 1    
    96   36   93 1    
    97   36   94 1    
    98   37   95 1    
    99   37   96 1    
   100   37   97 1    
   101   39   98 1    
   102   39   99 1    
   103   39  100 1    
   104   40  101 1    
   105   40  102 1    
   106   40  103 1    
   107   41  104 1    
   108   41  105 1    
   109   41  106 1    
   110   44  107 1    
   111   45  108 1    
   112   46  109 1    
   113   47  110 1    
   114   48   49 1    
   115   48  111 1    
   116   48  112 1    
   117   49  113 1    
   118   50  114 2    
   119   50  115 1    
   120   51   52 2    
   121   51   53 1    
   122   53  117 1    
   123  115  116 1    
@<TRIPOS>SUBSTRUCTURE
     1 ****       29 TEMP              0 ****  ****    0 ROOT 
@<TRIPOS>NORMAL
@<TRIPOS>FF_PBC
FORCE_FIELD_SETUP_FEATURE Force Field Setup information
v1.0  0 0.000000 0.000000 0.000000 0.000000 0.000000 0.000000 NONE 0 0 0 0 1 0 0 0 0 0 0 0 0
