@<TRIPOS>MOLECULE
MOL006957
   41    43     1     1     0
SMALL
GASTEIGER


@<TRIPOS>ATOM
      1 C          -4.208890   -4.320281   -0.734723 C.ar      1 <1>        -0.061500 
      2 C          -2.972862   -3.907603   -0.028547 C.ar      1 <1>        -0.058501 
      3 C          -2.927624   -2.671426    0.671177 C.ar      1 <1>        -0.045141 
      4 C          -4.132435   -1.805488    0.690745 C.ar      1 <1>        -0.058501 
      5 C          -5.304309   -2.201449    0.017383 C.ar      1 <1>        -0.061500 
      6 C          -5.343238   -3.489759   -0.713853 C.ar      1 <1>        -0.061742 
      7 C          -1.657833   -2.220548    1.404937 C.3       1 <1>        -0.000657 
      8 C          -0.956299   -1.064341    0.640447 C.3       1 <1>         0.103359 
      9 N          -0.569803   -1.456653   -0.714517 N.am      1 <1>        -0.302153 
     10 C           0.350552   -0.735353   -1.387938 C.2       1 <1>         0.234275 
     11 C           0.962944    0.462098   -0.693682 C.3       1 <1>         0.103359 
     12 N           1.170389    0.160649    0.722480 N.am      1 <1>        -0.302153 
     13 C           0.258024   -0.570185    1.396455 C.2       1 <1>         0.234275 
     14 C           2.278132    0.901534   -1.394385 C.3       1 <1>        -0.000655 
     15 C           2.864870    2.154746   -0.731223 C.ar      1 <1>        -0.044984 
     16 C           4.067799    2.058311    0.133038 C.ar      1 <1>        -0.056071 
     17 C           4.601839    3.210928    0.741041 C.ar      1 <1>        -0.031681 
     18 C           3.974354    4.535116    0.527489 C.ar      1 <1>         0.072598 
     19 C           2.821618    4.633753   -0.302315 C.ar      1 <1>        -0.031681 
     20 C           2.261731    3.419160   -0.941601 C.ar      1 <1>        -0.056071 
     21 O           4.527682    5.659553    1.145347 O.3       1 <1>        -0.359832 
     22 O           0.396926   -0.830569    2.580597 O.2       1 <1>        -0.273751 
     23 O           0.686734   -1.029445   -2.523634 O.2       1 <1>        -0.273751 
     24 H          -4.235699   -5.265034   -1.268491 H         1 <1>         0.061766 
     25 H          -2.105132   -4.558244   -0.053799 H         1 <1>         0.062030 
     26 H          -4.113041   -0.862201    1.226640 H         1 <1>         0.062030 
     27 H          -6.182689   -1.564223    0.032937 H         1 <1>         0.061766 
     28 H          -6.248465   -3.790101   -1.231815 H         1 <1>         0.061758 
     29 H          -0.951283   -3.058356    1.512209 H         1 <1>         0.033588 
     30 H          -1.951546   -1.891335    2.414583 H         1 <1>         0.033588 
     31 H          -1.655384   -0.215447    0.572735 H         1 <1>         0.059770 
     32 H          -1.004321   -2.240971   -1.160087 H         1 <1>         0.149518 
     33 H           0.232815    1.283398   -0.773815 H         1 <1>         0.059770 
     34 H           1.971668    0.516014    1.206235 H         1 <1>         0.149518 
     35 H           3.000262    0.071572   -1.349235 H         1 <1>         0.033588 
     36 H           2.091215    1.132466   -2.455532 H         1 <1>         0.033588 
     37 H           4.542219    1.096933    0.301195 H         1 <1>         0.062109 
     38 H           5.480488    3.137723    1.372860 H         1 <1>         0.064328 
     39 H           2.344362    5.592494   -0.473951 H         1 <1>         0.064328 
     40 H           1.384398    3.506689   -1.573819 H         1 <1>         0.062109 
     41 H           4.075517    6.472738    0.951820 H         1 <1>         0.217313 
@<TRIPOS>BOND
     1    1    2 1    
     2    1    6 2    
     3    1   24 1    
     4    2    3 2    
     5    2   25 1    
     6    3    4 1    
     7    3    7 1    
     8    4    5 2    
     9    4   26 1    
    10    5    6 1    
    11    5   27 1    
    12    6   28 1    
    13    7    8 1    
    14    7   29 1    
    15    7   30 1    
    16    8    9 1    
    17    8   13 1    
    18    8   31 1    
    19    9   10 1    
    20    9   32 1    
    21   10   11 1    
    22   10   23 2    
    23   11   12 1    
    24   11   14 1    
    25   11   33 1    
    26   12   13 1    
    27   12   34 1    
    28   13   22 2    
    29   14   15 1    
    30   14   35 1    
    31   14   36 1    
    32   15   16 1    
    33   15   20 2    
    34   16   17 2    
    35   16   37 1    
    36   17   18 1    
    37   17   38 1    
    38   18   19 2    
    39   18   21 1    
    40   19   20 1    
    41   19   39 1    
    42   20   40 1    
    43   21   41 1    
@<TRIPOS>SUBSTRUCTURE
     1 ****        1 TEMP              0 ****  ****    0 ROOT 
@<TRIPOS>NORMAL
@<TRIPOS>FF_PBC
FORCE_FIELD_SETUP_FEATURE Force Field Setup information
v1.0  0 0.000000 0.000000 0.000000 0.000000 0.000000 0.000000 NONE 0 0 0 0 1 0 0 0 0 0 0 0 0
