@<TRIPOS>MOLECULE
MOL004904
   48    51     1     1     0
SMALL
GASTEIGER


@<TRIPOS>ATOM
      1 C           2.097354    0.475440   -0.447529 C.ar      1 <1>         0.013365 
      2 C           1.918686    1.906097   -0.091523 C.ar      1 <1>         0.085097 
      3 O           3.019681    2.750055    0.061471 O.3       1 <1>        -0.335838 
      4 C           4.266073    2.120691    0.400888 C.3       1 <1>         0.096452 
      5 C           4.561979    1.024952   -0.663058 C.3       1 <1>        -0.017195 
      6 C           0.634653    2.423943    0.091045 C.ar      1 <1>         0.000012 
      7 C          -0.558928    1.562490   -0.067528 C.ar      1 <1>         0.098534 
      8 C          -0.396871    0.215924   -0.410312 C.ar      1 <1>         0.036703 
      9 C           3.501646   -0.103483   -0.644031 C.3       1 <1>        -0.020076 
     10 C           0.962675   -0.349216   -0.594991 C.ar      1 <1>         0.091047 
     11 O          -1.829911    2.108728    0.127069 O.3       1 <1>        -0.273171 
     12 C          -2.920772    1.337861    0.021869 C.2       1 <1>         0.299461 
     13 C          -2.828271   -0.089616   -0.351567 C.2       1 <1>         0.057145 
     14 C          -1.629622   -0.636439   -0.582401 C.2       1 <1>        -0.036075 
     15 O          -4.008402    1.842026    0.247415 O.2       1 <1>        -0.258804 
     16 C          -4.087479   -0.923261   -0.470066 C.ar      1 <1>         0.017745 
     17 C          -5.283754   -0.384647   -1.166241 C.ar      1 <1>        -0.048954 
     18 C          -6.442398   -1.161029   -1.285276 C.ar      1 <1>        -0.031201 
     19 C          -6.488982   -2.529576   -0.723714 C.ar      1 <1>         0.075055 
     20 C          -5.363410   -3.036622   -0.055394 C.ar      1 <1>        -0.001570 
     21 C          -4.133757   -2.213967    0.082629 C.ar      1 <1>         0.082884 
     22 O          -7.654604   -3.286295   -0.872751 O.3       1 <1>        -0.359750 
     23 O          -3.019978   -2.710726    0.765468 O.3       1 <1>        -0.359141 
     24 C           5.350872    3.229868    0.306320 C.3       1 <1>        -0.033143 
     25 C           4.221190    1.573655    1.861681 C.3       1 <1>         0.073448 
     26 O           3.152613    0.632898    2.087889 O.3       1 <1>        -0.392165 
     27 O           1.119238   -1.698729   -0.912934 O.3       1 <1>        -0.346887 
     28 C           1.124676   -2.572764    0.229266 C.3       1 <1>         0.043065 
     29 H           5.566294    0.594737   -0.515623 H         1 <1>         0.029689 
     30 H           4.536789    1.504401   -1.655868 H         1 <1>         0.029689 
     31 H           0.509075    3.468607    0.351245 H         1 <1>         0.066964 
     32 H           3.535010   -0.680844   -1.581737 H         1 <1>         0.031569 
     33 H           3.720176   -0.795788    0.181699 H         1 <1>         0.031569 
     34 H          -1.523655   -1.674000   -0.895149 H         1 <1>         0.063295 
     35 H          -5.265127    0.614535   -1.589049 H         1 <1>         0.062523 
     36 H          -7.317244   -0.766998   -1.791609 H         1 <1>         0.064340 
     37 H          -5.388614   -4.036048    0.362620 H         1 <1>         0.066920 
     38 H          -7.609327   -4.162234   -0.506769 H         1 <1>         0.217315 
     39 H          -3.127554   -3.599359    1.085421 H         1 <1>         0.217339 
     40 H           5.378856    3.653968   -0.708789 H         1 <1>         0.025819 
     41 H           6.346223    2.824775    0.543915 H         1 <1>         0.025819 
     42 H           5.128034    4.048140    1.007581 H         1 <1>         0.025819 
     43 H           4.069776    2.428935    2.541649 H         1 <1>         0.058578 
     44 H           5.190720    1.103099    2.096002 H         1 <1>         0.058578 
     45 H           3.112490    0.308543    2.982795 H         1 <1>         0.209519 
     46 H           1.948641   -2.325601    0.914879 H         1 <1>         0.052870 
     47 H           0.174198   -2.520180    0.781342 H         1 <1>         0.052870 
     48 H           1.265140   -3.603105   -0.128044 H         1 <1>         0.052870 
@<TRIPOS>BOND
     1    1    2 1    
     2    1    9 1    
     3    1   10 2    
     4    2    3 1    
     5    2    6 2    
     6    3    4 1    
     7    4    5 1    
     8    4   24 1    
     9    4   25 1    
    10    5    9 1    
    11    5   29 1    
    12    5   30 1    
    13    6    7 1    
    14    6   31 1    
    15    7    8 2    
    16    7   11 1    
    17    8   10 1    
    18    8   14 1    
    19    9   32 1    
    20    9   33 1    
    21   10   27 1    
    22   11   12 1    
    23   12   13 1    
    24   12   15 2    
    25   13   14 2    
    26   13   16 1    
    27   14   34 1    
    28   16   17 1    
    29   16   21 2    
    30   17   18 2    
    31   17   35 1    
    32   18   19 1    
    33   18   36 1    
    34   19   20 2    
    35   19   22 1    
    36   20   21 1    
    37   20   37 1    
    38   21   23 1    
    39   22   38 1    
    40   23   39 1    
    41   24   40 1    
    42   24   41 1    
    43   24   42 1    
    44   25   26 1    
    45   25   43 1    
    46   25   44 1    
    47   26   45 1    
    48   27   28 1    
    49   28   46 1    
    50   28   47 1    
    51   28   48 1    
@<TRIPOS>SUBSTRUCTURE
     1 ****        1 TEMP              0 ****  ****    0 ROOT 
@<TRIPOS>NORMAL
@<TRIPOS>FF_PBC
FORCE_FIELD_SETUP_FEATURE Force Field Setup information
v1.0  0 0.000000 0.000000 0.000000 0.000000 0.000000 0.000000 NONE 0 0 0 0 1 0 0 0 0 0 0 0 0
