@<TRIPOS>MOLECULE
MOL012267
   34    36     1     1     0
SMALL
GASTEIGER


@<TRIPOS>ATOM
      1 C           1.159467    0.108065    0.017199 C.2       1 <1>         0.096433 
      2 C           1.696536    1.339196    0.048701 C.2       1 <1>         0.017005 
      3 C           0.881582    2.551424    0.062066 C.2       1 <1>         0.193596 
      4 O           1.411724    3.650325    0.090722 O.2       1 <1>        -0.287016 
      5 C          -0.612177    2.381113    0.039219 C.ar      1 <1>         0.084493 
      6 C          -1.502550    3.567008    0.051029 C.ar      1 <1>         0.088482 
      7 C          -2.886755    3.373658    0.029254 C.ar      1 <1>         0.001243 
      8 C          -3.434393    2.002196   -0.004847 C.ar      1 <1>         0.107532 
      9 C          -2.587136    0.880067   -0.016003 C.ar      1 <1>         0.136793 
     10 C          -1.099470    1.061870    0.006802 C.ar      1 <1>         0.128725 
     11 O          -0.193360   -0.030599   -0.003137 O.3       1 <1>        -0.305041 
     12 C           2.057570   -1.129554    0.004202 C.ar      1 <1>         0.035278 
     13 C           1.472401   -2.502593   -0.030033 C.ar      1 <1>         0.082185 
     14 C           2.295245   -3.647003   -0.042185 C.ar      1 <1>        -0.031275 
     15 C           3.767393   -3.531446   -0.021453 C.ar      1 <1>        -0.059290 
     16 C           4.337404   -2.266221    0.010501 C.ar      1 <1>        -0.060964 
     17 C           3.477460   -1.059691    0.023319 C.ar      1 <1>        -0.049637 
     18 O          -3.222212   -0.368644   -0.048774 O.3       1 <1>        -0.342928 
     19 C          -2.491472   -1.590793   -0.063061 C.3       1 <1>         0.043243 
     20 O          -4.821365    1.835021   -0.026054 O.3       1 <1>        -0.357150 
     21 O          -0.953180    4.851809    0.083458 O.3       1 <1>        -0.358953 
     22 O           0.091118   -2.660905   -0.050395 O.3       1 <1>        -0.359161 
     23 H           2.749375    1.593279    0.067576 H         1 <1>         0.068220 
     24 H          -3.571940    4.213842    0.036900 H         1 <1>         0.067008 
     25 H           1.859817   -4.640382   -0.067136 H         1 <1>         0.064340 
     26 H           4.389805   -4.420902   -0.031071 H         1 <1>         0.061837 
     27 H           5.418198   -2.161043    0.026154 H         1 <1>         0.061779 
     28 H           4.019976   -0.128355    0.048272 H         1 <1>         0.062505 
     29 H          -3.205820   -2.426228   -0.088584 H         1 <1>         0.052872 
     30 H          -1.870764   -1.630492   -0.970218 H         1 <1>         0.052872 
     31 H          -1.894457   -1.666074    0.857646 H         1 <1>         0.052872 
     32 H          -5.065330    0.913748   -0.047259 H         1 <1>         0.217424 
     33 H          -1.586376    5.560838    0.089024 H         1 <1>         0.217342 
     34 H          -0.213142   -3.561284   -0.072726 H         1 <1>         0.217339 
@<TRIPOS>BOND
     1    1    2 2    
     2    1   11 1    
     3    1   12 1    
     4    2    3 1    
     5    2   23 1    
     6    3    4 2    
     7    3    5 1    
     8    5    6 1    
     9    5   10 2    
    10    6    7 2    
    11    6   21 1    
    12    7    8 1    
    13    7   24 1    
    14    8    9 2    
    15    8   20 1    
    16    9   10 1    
    17    9   18 1    
    18   10   11 1    
    19   12   13 1    
    20   12   17 2    
    21   13   14 2    
    22   13   22 1    
    23   14   15 1    
    24   14   25 1    
    25   15   16 2    
    26   15   26 1    
    27   16   17 1    
    28   16   27 1    
    29   17   28 1    
    30   18   19 1    
    31   19   29 1    
    32   19   30 1    
    33   19   31 1    
    34   20   32 1    
    35   21   33 1    
    36   22   34 1    
@<TRIPOS>SUBSTRUCTURE
     1 ****        1 TEMP              0 ****  ****    0 ROOT 
@<TRIPOS>NORMAL
@<TRIPOS>FF_PBC
FORCE_FIELD_SETUP_FEATURE Force Field Setup information
v1.0  0 0.000000 0.000000 0.000000 0.000000 0.000000 0.000000 NONE 0 0 0 0 1 0 0 0 0 0 0 0 0
