@<TRIPOS>MOLECULE
MOL012774
   36    36     1     1     0
SMALL
GASTEIGER


@<TRIPOS>ATOM
      1 C           6.877042    2.646799    0.585904 C.3       1 <1>        -0.006064 
      2 C           5.611747    1.879380    0.876302 C.2       1 <1>         0.130341 
      3 C           4.512823    2.578186    1.643100 C.3       1 <1>         0.006098 
      4 C           3.215726    1.722619    1.758046 C.3       1 <1>        -0.039362 
      5 O           5.494769    0.724625    0.496720 O.2       1 <1>        -0.297703 
      6 C           2.054214    2.437282    2.537345 C.3       1 <1>        -0.014620 
      7 C           1.871389    1.970490    3.982757 C.2       1 <1>        -0.072931 
      8 C           0.668702    1.859361    4.568937 C.2       1 <1>        -0.084726 
      9 C          -0.636914    2.213081    3.911714 C.3       1 <1>        -0.034005 
     10 C          -0.394472    3.075568    2.651627 C.3       1 <1>        -0.043882 
     11 C           0.700245    2.447348    1.738393 C.3       1 <1>        -0.028103 
     12 C           0.785748    3.352536    0.466387 C.3       1 <1>        -0.059260 
     13 C           0.266416    1.008004    1.319199 C.3       1 <1>        -0.059260 
     14 C           3.116009    1.649097    4.791546 C.3       1 <1>        -0.043507 
     15 H           6.836469    3.674004    0.980392 H         1 <1>         0.030578 
     16 H           7.731759    2.126248    1.045112 H         1 <1>         0.030578 
     17 H           7.029281    2.691935   -0.503298 H         1 <1>         0.030578 
     18 H           4.278913    3.520462    1.118789 H         1 <1>         0.034161 
     19 H           4.910520    2.824571    2.636459 H         1 <1>         0.034161 
     20 H           3.432656    0.737200    2.192111 H         1 <1>         0.027513 
     21 H           2.945152    1.521249    0.714815 H         1 <1>         0.027513 
     22 H           2.340935    3.493927    2.656013 H         1 <1>         0.035081 
     23 H           0.586064    1.497493    5.595151 H         1 <1>         0.057163 
     24 H          -1.185655    1.288723    3.672694 H         1 <1>         0.030757 
     25 H          -1.256793    2.792039    4.616991 H         1 <1>         0.030757 
     26 H          -1.351195    3.185924    2.115206 H         1 <1>         0.027355 
     27 H          -0.072848    4.083193    2.967228 H         1 <1>         0.027355 
     28 H          -0.192024    3.388782   -0.038658 H         1 <1>         0.023517 
     29 H           1.063120    4.381583    0.741646 H         1 <1>         0.023517 
     30 H           1.518717    2.993967   -0.268386 H         1 <1>         0.023517 
     31 H          -0.793286    1.000704    1.020580 H         1 <1>         0.023517 
     32 H           0.841722    0.627402    0.464361 H         1 <1>         0.023517 
     33 H           0.403078    0.298959    2.149071 H         1 <1>         0.023517 
     34 H           3.852023    2.457354    4.688644 H         1 <1>         0.027445 
     35 H           3.569265    0.697047    4.481271 H         1 <1>         0.027445 
     36 H           2.900182    1.562153    5.867430 H         1 <1>         0.027445 
@<TRIPOS>BOND
     1    1    2 1    
     2    1   15 1    
     3    1   16 1    
     4    1   17 1    
     5    2    3 1    
     6    2    5 2    
     7    3    4 1    
     8    3   18 1    
     9    3   19 1    
    10    4    6 1    
    11    4   20 1    
    12    4   21 1    
    13    6    7 1    
    14    6   11 1    
    15    6   22 1    
    16    7    8 2    
    17    7   14 1    
    18    8    9 1    
    19    8   23 1    
    20    9   10 1    
    21    9   24 1    
    22    9   25 1    
    23   10   11 1    
    24   10   26 1    
    25   10   27 1    
    26   11   12 1    
    27   11   13 1    
    28   12   28 1    
    29   12   29 1    
    30   12   30 1    
    31   13   31 1    
    32   13   32 1    
    33   13   33 1    
    34   14   34 1    
    35   14   35 1    
    36   14   36 1    
@<TRIPOS>SUBSTRUCTURE
     1 ****        1 TEMP              0 ****  ****    0 ROOT 
@<TRIPOS>NORMAL
@<TRIPOS>FF_PBC
FORCE_FIELD_SETUP_FEATURE Force Field Setup information
v1.0  0 0.000000 0.000000 0.000000 0.000000 0.000000 0.000000 NONE 0 0 0 0 1 0 0 0 0 0 0 0 0
