@<TRIPOS>MOLECULE
MOL005819
   47    46     1     1     0
SMALL
GASTEIGER


@<TRIPOS>ATOM
      1 C           1.171411   -1.633076    0.317971 C.3       1 <1>        -0.043879 
      2 C           2.521628   -0.921063   -0.013979 C.3       1 <1>        -0.050451 
      3 C           0.002162   -0.615623    0.492134 C.3       1 <1>        -0.050459 
      4 C           0.834451   -2.738440   -0.723977 C.3       1 <1>        -0.062415 
      5 C           2.513431   -0.084538   -1.325579 C.3       1 <1>        -0.052582 
      6 C          -1.236855   -1.211585    1.218060 C.3       1 <1>        -0.052807 
      7 C           3.900595    0.571592   -1.578014 C.3       1 <1>        -0.050700 
      8 C          -2.330273   -0.128963    1.443255 C.3       1 <1>        -0.052815 
      9 C           4.010777    1.305793   -2.948468 C.3       1 <1>        -0.046721 
     10 C          -3.530616   -0.699402    2.249129 C.3       1 <1>        -0.050709 
     11 C           2.968797    2.450541   -3.095784 C.3       1 <1>        -0.062665 
     12 C           5.445489    1.879210   -3.118152 C.3       1 <1>        -0.062665 
     13 C          -4.594664    0.372767    2.635749 C.3       1 <1>        -0.046721 
     14 C          -5.331003    0.949436    1.392758 C.3       1 <1>        -0.062665 
     15 C          -5.633008   -0.240049    3.619377 C.3       1 <1>        -0.062665 
     16 H           1.330493   -2.136775    1.288666 H         1 <1>         0.029813 
     17 H           2.784377   -0.250972    0.821394 H         1 <1>         0.026785 
     18 H           3.314146   -1.684486   -0.080098 H         1 <1>         0.026785 
     19 H           0.363755    0.235036    1.091969 H         1 <1>         0.026785 
     20 H          -0.318303   -0.231392   -0.489064 H         1 <1>         0.026785 
     21 H           0.022674   -3.384894   -0.359990 H         1 <1>         0.023242 
     22 H           1.712682   -3.377843   -0.902295 H         1 <1>         0.023242 
     23 H           0.520828   -2.302109   -1.683507 H         1 <1>         0.023242 
     24 H           2.261934   -0.724252   -2.184800 H         1 <1>         0.026545 
     25 H           1.753743    0.705444   -1.238021 H         1 <1>         0.026545 
     26 H          -1.672641   -2.033480    0.629642 H         1 <1>         0.026537 
     27 H          -0.919580   -1.618117    2.192392 H         1 <1>         0.026537 
     28 H           4.115643    1.281821   -0.763136 H         1 <1>         0.026777 
     29 H           4.668847   -0.218531   -1.549724 H         1 <1>         0.026777 
     30 H          -1.898134    0.721632    1.995497 H         1 <1>         0.026537 
     31 H          -2.665449    0.232334    0.458761 H         1 <1>         0.026537 
     32 H           3.837823    0.574360   -3.757702 H         1 <1>         0.029548 
     33 H          -4.010136   -1.506607    1.672658 H         1 <1>         0.026777 
     34 H          -3.133822   -1.138374    3.178166 H         1 <1>         0.026777 
     35 H           3.153111    3.019252   -4.019960 H         1 <1>         0.023233 
     36 H           1.944066    2.055428   -3.154272 H         1 <1>         0.023233 
     37 H           3.036042    3.142626   -2.242763 H         1 <1>         0.023233 
     38 H           5.558249    2.359944   -4.101854 H         1 <1>         0.023233 
     39 H           6.195165    1.076775   -3.044683 H         1 <1>         0.023233 
     40 H           5.654215    2.626717   -2.337817 H         1 <1>         0.023233 
     41 H          -4.088533    1.204261    3.160337 H         1 <1>         0.029548 
     42 H          -6.116326    1.655268    1.707501 H         1 <1>         0.023233 
     43 H          -4.640290    1.495730    0.734005 H         1 <1>         0.023233 
     44 H          -5.804035    0.140145    0.815404 H         1 <1>         0.023233 
     45 H          -6.372818    0.516504    3.923841 H         1 <1>         0.023233 
     46 H          -5.135600   -0.612268    4.529267 H         1 <1>         0.023233 
     47 H          -6.164648   -1.079677    3.145502 H         1 <1>         0.023233 
@<TRIPOS>BOND
     1    1    2 1    
     2    1    3 1    
     3    1    4 1    
     4    1   16 1    
     5    2    5 1    
     6    2   17 1    
     7    2   18 1    
     8    3    6 1    
     9    3   19 1    
    10    3   20 1    
    11    4   21 1    
    12    4   22 1    
    13    4   23 1    
    14    5    7 1    
    15    5   24 1    
    16    5   25 1    
    17    6    8 1    
    18    6   26 1    
    19    6   27 1    
    20    7    9 1    
    21    7   28 1    
    22    7   29 1    
    23    8   10 1    
    24    8   30 1    
    25    8   31 1    
    26    9   11 1    
    27    9   12 1    
    28    9   32 1    
    29   10   13 1    
    30   10   33 1    
    31   10   34 1    
    32   11   35 1    
    33   11   36 1    
    34   11   37 1    
    35   12   38 1    
    36   12   39 1    
    37   12   40 1    
    38   13   14 1    
    39   13   15 1    
    40   13   41 1    
    41   14   42 1    
    42   14   43 1    
    43   14   44 1    
    44   15   45 1    
    45   15   46 1    
    46   15   47 1    
@<TRIPOS>SUBSTRUCTURE
     1 ****        1 TEMP              0 ****  ****    0 ROOT 
@<TRIPOS>NORMAL
@<TRIPOS>FF_PBC
FORCE_FIELD_SETUP_FEATURE Force Field Setup information
v1.0  0 0.000000 0.000000 0.000000 0.000000 0.000000 0.000000 NONE 0 0 0 0 1 0 0 0 0 0 0 0 0
