@<TRIPOS>MOLECULE
MOL004809
   57    60     1     1     0
SMALL
GASTEIGER


@<TRIPOS>ATOM
      1 C          -2.369901    0.800878   -0.093281 C.ar      1 <1>         0.081768 
      2 C          -1.819671    2.146081    0.231967 C.ar      1 <1>        -0.012853 
      3 C          -0.447058    2.285343    0.509408 C.ar      1 <1>        -0.042482 
      4 C           0.447687    1.110382    0.431827 C.ar      1 <1>         0.053362 
      5 C          -0.058819   -0.150032    0.134590 C.ar      1 <1>         0.098617 
      6 C          -1.507286   -0.312667   -0.120992 C.ar      1 <1>        -0.000098 
      7 C           1.937998    1.200948    0.636124 C.2       1 <1>         0.200723 
      8 C           2.740603    0.039568    0.221004 C.2       1 <1>         0.084456 
      9 C           2.121459   -1.121866   -0.052112 C.2       1 <1>         0.206241 
     10 O           0.789765   -1.256490    0.050560 O.3       1 <1>        -0.285269 
     11 O           2.440701    2.201879    1.116223 O.2       1 <1>        -0.286385 
     12 C           4.244718    0.184697    0.112933 C.ar      1 <1>        -0.009656 
     13 C           5.154559   -0.908369    0.543447 C.ar      1 <1>        -0.053765 
     14 C           6.540664   -0.780316    0.398991 C.ar      1 <1>        -0.061181 
     15 C           7.118087    0.467281   -0.152297 C.ar      1 <1>        -0.061723 
     16 C           6.272762    1.515169   -0.528520 C.ar      1 <1>        -0.061181 
     17 C           4.803238    1.367002   -0.401775 C.ar      1 <1>        -0.053765 
     18 C          -2.703015    3.406284    0.258520 C.3       1 <1>        -0.006781 
     19 C          -4.143496    3.202812    0.665570 C.2       1 <1>        -0.080898 
     20 C          -5.153100    4.023100    0.326351 C.2       1 <1>        -0.079307 
     21 C          -6.582804    3.701795    0.705429 C.3       1 <1>        -0.044040 
     22 C          -4.966831    5.315169   -0.442220 C.3       1 <1>        -0.044040 
     23 O           2.831185   -2.178544   -0.459596 O.3       1 <1>        -0.283468 
     24 C           2.290891   -3.471137   -0.410804 C.ar      1 <1>         0.115098 
     25 C           3.074212   -4.516417    0.289835 C.ar      1 <1>        -0.026125 
     26 C           2.585785   -5.817700    0.422768 C.ar      1 <1>        -0.029321 
     27 C           1.257504   -6.170527   -0.123835 C.ar      1 <1>         0.075181 
     28 C           0.525514   -5.198788   -0.824496 C.ar      1 <1>         0.000387 
     29 C           1.049669   -3.823806   -1.006339 C.ar      1 <1>         0.105499 
     30 O           0.762271   -7.462239    0.071929 O.3       1 <1>        -0.359748 
     31 O           0.290459   -2.926731   -1.764986 O.3       1 <1>        -0.357199 
     32 O          -3.737027    0.671967   -0.371770 O.3       1 <1>        -0.347548 
     33 C          -4.411690   -0.593507   -0.279217 C.3       1 <1>         0.043039 
     34 H          -0.027764    3.252511    0.766188 H         1 <1>         0.062902 
     35 H          -1.867001   -1.308820   -0.340172 H         1 <1>         0.066963 
     36 H           4.752958   -1.815091    0.980115 H         1 <1>         0.062365 
     37 H           7.196330   -1.592315    0.696586 H         1 <1>         0.061776 
     38 H           8.193684    0.566671   -0.258375 H         1 <1>         0.061759 
     39 H           6.690088    2.438435   -0.917976 H         1 <1>         0.061776 
     40 H           4.165838    2.184182   -0.722498 H         1 <1>         0.062365 
     41 H          -2.644494    3.796089   -0.768841 H         1 <1>         0.035640 
     42 H          -2.276899    4.149722    0.950214 H         1 <1>         0.035640 
     43 H          -4.361209    2.331067    1.282239 H         1 <1>         0.057472 
     44 H          -6.708047    2.664307    1.051398 H         1 <1>         0.027427 
     45 H          -6.913448    4.379792    1.506648 H         1 <1>         0.027427 
     46 H          -7.235711    3.844213   -0.169635 H         1 <1>         0.027427 
     47 H          -3.937495    5.699292   -0.416399 H         1 <1>         0.027427 
     48 H          -5.263338    5.164458   -1.490841 H         1 <1>         0.027427 
     49 H          -5.608183    6.096774   -0.006926 H         1 <1>         0.027427 
     50 H           4.047000   -4.263143    0.697282 H         1 <1>         0.064508 
     51 H           3.175498   -6.576847    0.925334 H         1 <1>         0.064402 
     52 H          -0.445896   -5.439100   -1.240760 H         1 <1>         0.066985 
     53 H          -0.161329   -7.562539   -0.129839 H         1 <1>         0.217315 
     54 H           0.692930   -2.072267   -1.856125 H         1 <1>         0.217423 
     55 H          -5.488725   -0.405023   -0.398199 H         1 <1>         0.052870 
     56 H          -4.096322   -1.279848   -1.079316 H         1 <1>         0.052870 
     57 H          -4.244726   -1.056888    0.705719 H         1 <1>         0.052870 
@<TRIPOS>BOND
     1    1    2 1    
     2    1    6 2    
     3    1   32 1    
     4    2    3 2    
     5    2   18 1    
     6    3    4 1    
     7    3   34 1    
     8    4    5 2    
     9    4    7 1    
    10    5    6 1    
    11    5   10 1    
    12    6   35 1    
    13    7    8 1    
    14    7   11 2    
    15    8    9 2    
    16    8   12 1    
    17    9   10 1    
    18    9   23 1    
    19   12   13 1    
    20   12   17 2    
    21   13   14 2    
    22   13   36 1    
    23   14   15 1    
    24   14   37 1    
    25   15   16 2    
    26   15   38 1    
    27   16   17 1    
    28   16   39 1    
    29   17   40 1    
    30   18   19 1    
    31   18   41 1    
    32   18   42 1    
    33   19   20 2    
    34   19   43 1    
    35   20   21 1    
    36   20   22 1    
    37   21   44 1    
    38   21   45 1    
    39   21   46 1    
    40   22   47 1    
    41   22   48 1    
    42   22   49 1    
    43   23   24 1    
    44   24   25 1    
    45   24   29 2    
    46   25   26 2    
    47   25   50 1    
    48   26   27 1    
    49   26   51 1    
    50   27   28 2    
    51   27   30 1    
    52   28   29 1    
    53   28   52 1    
    54   29   31 1    
    55   30   53 1    
    56   31   54 1    
    57   32   33 1    
    58   33   55 1    
    59   33   56 1    
    60   33   57 1    
@<TRIPOS>SUBSTRUCTURE
     1 ****        1 TEMP              0 ****  ****    0 ROOT 
@<TRIPOS>NORMAL
@<TRIPOS>FF_PBC
FORCE_FIELD_SETUP_FEATURE Force Field Setup information
v1.0  0 0.000000 0.000000 0.000000 0.000000 0.000000 0.000000 NONE 0 0 0 0 1 0 0 0 0 0 0 0 0
