@<TRIPOS>MOLECULE
MOL000525
   30    32     1     1     0
SMALL
GASTEIGER


@<TRIPOS>ATOM
      1 C          -3.611697    1.603841   -0.009737 C.ar      1 <1>         0.107300 
      2 C          -3.143196    2.925988    0.018623 C.ar      1 <1>         0.001235 
      3 C          -1.690547    3.215178    0.040626 C.ar      1 <1>         0.088482 
      4 C          -0.775679    2.125908    0.032273 C.ar      1 <1>         0.084485 
      5 C          -1.255407    0.731828    0.002584 C.ar      1 <1>         0.128494 
      6 C          -2.650301    0.470683   -0.017918 C.ar      1 <1>         0.134075 
      7 C           0.719805    2.286609    0.052209 C.2       1 <1>         0.193594 
      8 C           1.534461    1.065083    0.038618 C.2       1 <1>         0.016921 
      9 C           0.991434   -0.163776    0.011104 C.2       1 <1>         0.093971 
     10 O          -0.345429   -0.330577   -0.005494 O.3       1 <1>        -0.305133 
     11 O          -3.134373   -0.840544   -0.045815 O.3       1 <1>        -0.355362 
     12 O          -4.986443    1.364974   -0.030187 O.3       1 <1>        -0.357155 
     13 O          -1.253307    4.542024    0.068813 O.3       1 <1>        -0.358953 
     14 O           1.224799    3.397750    0.078519 O.2       1 <1>        -0.287016 
     15 C           1.821288   -1.436965   -0.003470 C.ar      1 <1>         0.005596 
     16 C           1.132476   -2.695246   -0.037822 C.ar      1 <1>        -0.052112 
     17 C           1.875337   -3.977468   -0.054134 C.ar      1 <1>        -0.061122 
     18 C           3.272428   -3.978891   -0.036152 C.ar      1 <1>        -0.061721 
     19 C           4.006645   -2.693817   -0.000470 C.ar      1 <1>        -0.061122 
     20 C           3.309966   -1.468689    0.015490 C.ar      1 <1>        -0.052112 
     21 H          -3.851086    3.746900    0.024474 H         1 <1>         0.067008 
     22 H           2.602887    1.254153    0.052683 H         1 <1>         0.068219 
     23 H          -2.429432   -1.480887   -0.046432 H         1 <1>         0.217502 
     24 H          -5.178635    0.432424   -0.049385 H         1 <1>         0.217423 
     25 H          -0.304695    4.636509    0.081473 H         1 <1>         0.217342 
     26 H           0.048830   -2.730230   -0.052667 H         1 <1>         0.062424 
     27 H           1.331054   -4.916321   -0.080158 H         1 <1>         0.061777 
     28 H           3.819497   -4.916379   -0.048175 H         1 <1>         0.061759 
     29 H           5.092235   -2.700635    0.013505 H         1 <1>         0.061777 
     30 H           3.898393   -0.561703    0.041936 H         1 <1>         0.062424 
@<TRIPOS>BOND
     1    1    2 2    
     2    1    6 1    
     3    1   12 1    
     4    2    3 1    
     5    2   21 1    
     6    3    4 2    
     7    3   13 1    
     8    4    5 1    
     9    4    7 1    
    10    5    6 2    
    11    5   10 1    
    12    6   11 1    
    13    7    8 1    
    14    7   14 2    
    15    8    9 2    
    16    8   22 1    
    17    9   10 1    
    18    9   15 1    
    19   11   23 1    
    20   12   24 1    
    21   13   25 1    
    22   15   16 2    
    23   15   20 1    
    24   16   17 1    
    25   16   26 1    
    26   17   18 2    
    27   17   27 1    
    28   18   19 1    
    29   18   28 1    
    30   19   20 2    
    31   19   29 1    
    32   20   30 1    
@<TRIPOS>SUBSTRUCTURE
     1 ****        1 TEMP              0 ****  ****    0 ROOT 
@<TRIPOS>NORMAL
@<TRIPOS>FF_PBC
FORCE_FIELD_SETUP_FEATURE Force Field Setup information
v1.0  0 0.000000 0.000000 0.000000 0.000000 0.000000 0.000000 NONE 0 0 0 0 1 0 0 0 0 0 0 0 0
