@<TRIPOS>MOLECULE
MOL001893
   16    15     1     1     0
SMALL
GASTEIGER


@<TRIPOS>ATOM
      1 C          -0.776433   -0.167298   -0.404293 C.3       1 <1>         0.077995 
      2 C           0.776596   -0.266399   -0.346924 C.3       1 <1>         0.077995 
      3 C          -1.339900    1.073028    0.341822 C.3       1 <1>        -0.036524 
      4 O          -1.156537   -0.089102   -1.793060 O.3       1 <1>        -0.389524 
      5 C           1.339734   -0.240541    1.100377 C.3       1 <1>        -0.036524 
      6 O           1.156858   -1.508048   -0.973816 O.3       1 <1>        -0.389524 
      7 H          -1.191516   -1.087754    0.043937 H         1 <1>         0.061601 
      8 H           1.191629    0.582179   -0.919713 H         1 <1>         0.061601 
      9 H          -2.424988    1.154162    0.174916 H         1 <1>         0.025525 
     10 H          -1.176793    0.999615    1.427041 H         1 <1>         0.025525 
     11 H          -0.859715    1.988520   -0.035629 H         1 <1>         0.025525 
     12 H          -2.098066   -0.100364   -1.932541 H         1 <1>         0.209876 
     13 H           2.424782   -0.425726    1.087367 H         1 <1>         0.025525 
     14 H           1.176582    0.736003    1.579361 H         1 <1>         0.025525 
     15 H           0.859383   -1.025158    1.704402 H         1 <1>         0.025525 
     16 H           2.098383   -1.623117   -1.053047 H         1 <1>         0.209876 
@<TRIPOS>BOND
     1    1    2 1    
     2    1    3 1    
     3    1    4 1    
     4    1    7 1    
     5    2    5 1    
     6    2    6 1    
     7    2    8 1    
     8    3    9 1    
     9    3   10 1    
    10    3   11 1    
    11    4   12 1    
    12    5   13 1    
    13    5   14 1    
    14    5   15 1    
    15    6   16 1    
@<TRIPOS>SUBSTRUCTURE
     1 ****        1 TEMP              0 ****  ****    0 ROOT 
@<TRIPOS>NORMAL
@<TRIPOS>FF_PBC
FORCE_FIELD_SETUP_FEATURE Force Field Setup information
v1.0  0 0.000000 0.000000 0.000000 0.000000 0.000000 0.000000 NONE 0 0 0 0 1 0 0 0 0 0 0 0 0
