@<TRIPOS>MOLECULE
MOL000432
   50    49     1     1     0
SMALL
GASTEIGER


@<TRIPOS>ATOM
      1 C           8.232720    1.761013   -0.004048 C.2       1 <1>         0.259588 
      2 C           6.888178    1.084492   -0.004462 C.3       1 <1>         0.033006 
      3 C           5.705054    2.087292   -0.009146 C.3       1 <1>        -0.044061 
      4 C           4.340330    1.342954   -0.004996 C.3       1 <1>        -0.052596 
      5 C           3.144956    2.345593   -0.009513 C.3       1 <1>        -0.053036 
      6 C           1.781088    1.607935    0.014067 C.3       1 <1>        -0.052779 
      7 C           0.604080    2.619011    0.011656 C.3       1 <1>        -0.049616 
      8 C          -0.750091    1.867084    0.099378 C.3       1 <1>        -0.034751 
      9 C          -1.936498    2.801443    0.094027 C.2       1 <1>        -0.087640 
     10 C          -3.194127    2.364346   -0.066565 C.2       1 <1>        -0.084202 
     11 C          -3.540382    0.897518   -0.252641 C.3       1 <1>        -0.016536 
     12 C          -5.026712    0.637613   -0.094256 C.2       1 <1>        -0.083911 
     13 C          -5.570388   -0.575310    0.114138 C.2       1 <1>        -0.083911 
     14 C          -4.757198   -1.849959    0.205069 C.3       1 <1>        -0.016536 
     15 C          -5.549332   -3.130530    0.029358 C.2       1 <1>        -0.084210 
     16 C          -4.977810   -4.340491   -0.088647 C.2       1 <1>        -0.087899 
     17 C          -3.480853   -4.572825   -0.060864 C.3       1 <1>        -0.037599 
     18 C          -3.084828   -6.071945    0.014682 C.3       1 <1>        -0.061821 
     19 O           8.376474    2.970753   -0.006318 O.2       1 <1>        -0.265177 
     20 O           9.261612    0.912055   -0.001309 O.3       1 <1>        -0.331267 
     21 H           6.841396    0.449270    0.895483 H         1 <1>         0.036600 
     22 H           6.843453    0.444123   -0.899851 H         1 <1>         0.036600 
     23 H           5.779233    2.719401   -0.908412 H         1 <1>         0.027004 
     24 H           5.780012    2.726984    0.886266 H         1 <1>         0.027004 
     25 H           4.284713    0.700275    0.891813 H         1 <1>         0.026540 
     26 H           4.282347    0.690456   -0.893620 H         1 <1>         0.026540 
     27 H           3.174869    2.982748   -0.911193 H         1 <1>         0.026529 
     28 H           3.191492    3.004835    0.875311 H         1 <1>         0.026529 
     29 H           1.721005    0.986299    0.921131 H         1 <1>         0.026538 
     30 H           1.699244    0.957050   -0.871431 H         1 <1>         0.026538 
     31 H           0.635757    3.223978   -0.911623 H         1 <1>         0.026822 
     32 H           0.700657    3.298750    0.875796 H         1 <1>         0.026822 
     33 H          -0.772485    1.287804    1.036040 H         1 <1>         0.030732 
     34 H          -0.827331    1.171542   -0.752018 H         1 <1>         0.030732 
     35 H          -1.775987    3.875362    0.226146 H         1 <1>         0.056905 
     36 H          -3.981631    3.122341   -0.066138 H         1 <1>         0.057203 
     37 H          -3.252763    0.607884   -1.279443 H         1 <1>         0.034962 
     38 H          -2.979424    0.281004    0.473364 H         1 <1>         0.034962 
     39 H          -5.698274    1.498370   -0.158383 H         1 <1>         0.057212 
     40 H          -6.655984   -0.633339    0.228724 H         1 <1>         0.057212 
     41 H          -3.965483   -1.818109   -0.563798 H         1 <1>         0.034962 
     42 H          -4.304642   -1.874528    1.210926 H         1 <1>         0.034962 
     43 H          -6.640842   -3.078066    0.001631 H         1 <1>         0.057203 
     44 H          -5.630527   -5.207387   -0.212735 H         1 <1>         0.056896 
     45 H          -3.037038   -4.152820   -0.978950 H         1 <1>         0.030466 
     46 H          -3.040886   -4.061604    0.811624 H         1 <1>         0.030466 
     47 H          -1.986688   -6.175323    0.035053 H         1 <1>         0.023270 
     48 H          -3.490220   -6.533833    0.929465 H         1 <1>         0.023270 
     49 H          -3.458367   -6.613493   -0.869319 H         1 <1>         0.023270 
     50 H          10.098021    1.361984   -0.001370 H         1 <1>         0.220208 
@<TRIPOS>BOND
     1    1    2 1    
     2    1   19 2    
     3    1   20 1    
     4    2    3 1    
     5    2   21 1    
     6    2   22 1    
     7    3    4 1    
     8    3   23 1    
     9    3   24 1    
    10    4    5 1    
    11    4   25 1    
    12    4   26 1    
    13    5    6 1    
    14    5   27 1    
    15    5   28 1    
    16    6    7 1    
    17    6   29 1    
    18    6   30 1    
    19    7    8 1    
    20    7   31 1    
    21    7   32 1    
    22    8    9 1    
    23    8   33 1    
    24    8   34 1    
    25    9   10 2    
    26    9   35 1    
    27   10   11 1    
    28   10   36 1    
    29   11   12 1    
    30   11   37 1    
    31   11   38 1    
    32   12   13 2    
    33   12   39 1    
    34   13   14 1    
    35   13   40 1    
    36   14   15 1    
    37   14   41 1    
    38   14   42 1    
    39   15   16 2    
    40   15   43 1    
    41   16   17 1    
    42   16   44 1    
    43   17   18 1    
    44   17   45 1    
    45   17   46 1    
    46   18   47 1    
    47   18   48 1    
    48   18   49 1    
    49   20   50 1    
@<TRIPOS>SUBSTRUCTURE
     1 ****        1 TEMP              0 ****  ****    0 ROOT 
@<TRIPOS>NORMAL
@<TRIPOS>FF_PBC
FORCE_FIELD_SETUP_FEATURE Force Field Setup information
v1.0  0 0.000000 0.000000 0.000000 0.000000 0.000000 0.000000 NONE 0 0 0 0 1 0 0 0 0 0 0 0 0
