@<TRIPOS>MOLECULE
MOL000714
   17    17     1     1     0
SMALL
GASTEIGER


@<TRIPOS>ATOM
      1 C           0.393826    0.216747    0.012612 C.ar      1 <1>        -0.040546 
      2 C           0.957580   -1.150448    0.143053 C.ar      1 <1>        -0.058178 
      3 C          -1.003701    0.402660    0.162543 C.ar      1 <1>        -0.058178 
      4 C           1.343080    1.390743   -0.273259 C.3       1 <1>         0.027970 
      5 C           0.121001   -2.240695    0.420552 C.ar      1 <1>        -0.061491 
      6 C          -1.884886   -0.755733    0.443810 C.ar      1 <1>        -0.061491 
      7 C           0.659612    2.537516   -0.973999 C.2       1 <1>         0.124583 
      8 C          -1.338198   -2.038659    0.576676 C.ar      1 <1>        -0.061741 
      9 O           0.335851    3.540925   -0.355456 O.2       1 <1>        -0.300690 
     10 H           2.024292   -1.311094    0.029342 H         1 <1>         0.062040 
     11 H          -1.441406    1.390580    0.080584 H         1 <1>         0.062040 
     12 H           1.770622    1.720999    0.687492 H         1 <1>         0.038718 
     13 H           2.171990    1.056915   -0.918197 H         1 <1>         0.038718 
     14 H           0.534927   -3.237751    0.520615 H         1 <1>         0.061767 
     15 H          -2.954048   -0.603740    0.546924 H         1 <1>         0.061767 
     16 H           0.432027    2.487759   -2.040141 H         1 <1>         0.102955 
     17 H          -1.985212   -2.883543    0.792743 H         1 <1>         0.061758 
@<TRIPOS>BOND
     1    1    2 1    
     2    1    3 2    
     3    1    4 1    
     4    2    5 2    
     5    2   10 1    
     6    3    6 1    
     7    3   11 1    
     8    4    7 1    
     9    4   12 1    
    10    4   13 1    
    11    5    8 1    
    12    5   14 1    
    13    6    8 2    
    14    6   15 1    
    15    7    9 2    
    16    7   16 1    
    17    8   17 1    
@<TRIPOS>SUBSTRUCTURE
     1 ****        1 TEMP              0 ****  ****    0 ROOT 
@<TRIPOS>NORMAL
@<TRIPOS>FF_PBC
FORCE_FIELD_SETUP_FEATURE Force Field Setup information
v1.0  0 0.000000 0.000000 0.000000 0.000000 0.000000 0.000000 NONE 0 0 0 0 1 0 0 0 0 0 0 0 0
