@<TRIPOS>MOLECULE
MOL012973
   80    81     1     1     0
SMALL
GASTEIGER


@<TRIPOS>ATOM
      1 O          -1.421965    3.702921   -0.042704 O.3       1 <1>        -0.338898 
      2 O          -1.994737    0.623046   -1.451838 O.2       1 <1>        -0.273666 
      3 O           1.565042    0.382789    1.762032 O.2       1 <1>        -0.274076 
      4 O          -4.017144   -3.135007    0.323136 O.2       1 <1>        -0.273437 
      5 N           1.045193    0.893670   -0.371206 N.am      1 <1>        -0.300551 
      6 N          -1.279184   -0.832694    0.108269 N.am      1 <1>        -0.302133 
      7 N           3.963869    1.099940   -0.369579 N.3       1 <1>        -0.297631 
      8 N          -4.209116   -0.920144    0.086138 N.am      1 <1>        -0.290408 
      9 C          -0.430463    2.869863   -0.685475 C.3       1 <1>         0.094269 
     10 C          -0.273632    1.445384   -0.038603 C.3       1 <1>         0.126456 
     11 C           0.876582    3.724906   -0.623526 C.3       1 <1>        -0.017648 
     12 C           3.230983   -0.096150    0.129655 C.3       1 <1>         0.086994 
     13 C          -2.049159   -1.982338   -0.431380 C.3       1 <1>         0.102250 
     14 C          -1.234283   -3.310492   -0.263701 C.3       1 <1>        -0.017135 
     15 C           4.057698   -0.862486    1.208141 C.3       1 <1>        -0.026504 
     16 C          -1.257697    0.381975   -0.509866 C.2       1 <1>         0.236538 
     17 C           3.680316   -2.360844    1.444455 C.3       1 <1>        -0.044852 
     18 C           1.874709    0.408855    0.582732 C.2       1 <1>         0.230907 
     19 C           1.285433    4.043139    0.842674 C.3       1 <1>        -0.060225 
     20 C           0.694318    5.053127   -1.414371 C.3       1 <1>        -0.060225 
     21 C          -1.698667   -4.490891   -1.177973 C.3       1 <1>        -0.051175 
     22 C          -1.187457   -3.813547    1.212412 C.3       1 <1>        -0.060281 
     23 C          -3.503948   -2.068196    0.029712 C.2       1 <1>         0.237368 
     24 C           2.209795   -2.539751    1.903541 C.3       1 <1>        -0.062604 
     25 C           3.975501   -3.272853    0.218243 C.3       1 <1>        -0.062604 
     26 C          -2.674268    3.135746    0.136136 C.ar      1 <1>         0.076681 
     27 C          -1.688579   -4.186853   -2.701638 C.3       1 <1>        -0.064964 
     28 C           4.902797    0.887572   -1.497478 C.3       1 <1>        -0.012333 
     29 C           4.448790    2.053941    0.656541 C.3       1 <1>        -0.012333 
     30 C          -3.063466    2.750114    1.421821 C.ar      1 <1>        -0.031108 
     31 C          -3.577207    2.934596   -1.021046 C.ar      1 <1>        -0.031108 
     32 C          -5.036144    1.595751    0.463235 C.ar      1 <1>        -0.023697 
     33 C          -5.518713   -0.753134    0.435405 C.2       1 <1>        -0.003130 
     34 C          -4.291565    1.945753    1.598379 C.ar      1 <1>        -0.052116 
     35 C          -4.752491    2.196759   -0.859641 C.ar      1 <1>        -0.052116 
     36 C          -6.037814    0.476060    0.598939 C.2       1 <1>        -0.040693 
     37 H          -0.415763    1.574470    1.044752 H         1 <1>         0.062102 
     38 H          -0.688486    2.735576   -1.748560 H         1 <1>         0.062716 
     39 H           1.712968    3.189304   -1.103856 H         1 <1>         0.032124 
     40 H           3.045725   -0.771081   -0.716409 H         1 <1>         0.055832 
     41 H          -2.131961   -1.814540   -1.515196 H         1 <1>         0.059722 
     42 H          -0.199644   -3.067586   -0.564464 H         1 <1>         0.032060 
     43 H           5.115011   -0.846962    0.901411 H         1 <1>         0.028750 
     44 H           3.993805   -0.318956    2.164712 H         1 <1>         0.028750 
     45 H           1.309993    0.862175   -1.337887 H         1 <1>         0.149577 
     46 H           4.327073   -2.719103    2.267504 H         1 <1>         0.029609 
     47 H          -0.719160   -0.960464    0.926059 H         1 <1>         0.149518 
     48 H           2.212175    4.636943    0.860743 H         1 <1>         0.023314 
     49 H           1.463084    3.121290    1.412203 H         1 <1>         0.023314 
     50 H           0.498494    4.617773    1.353709 H         1 <1>         0.023314 
     51 H          -0.114775    5.661666   -0.982181 H         1 <1>         0.023314 
     52 H           0.448847    4.845021   -2.467563 H         1 <1>         0.023314 
     53 H           1.621742    5.646188   -1.389870 H         1 <1>         0.023314 
     54 H          -1.006324   -5.333209   -1.010486 H         1 <1>         0.026590 
     55 H          -2.704958   -4.836250   -0.894897 H         1 <1>         0.026590 
     56 H          -0.457043   -4.632238    1.306299 H         1 <1>         0.023311 
     57 H          -0.892719   -3.027915    1.920296 H         1 <1>         0.023311 
     58 H          -2.164297   -4.203992    1.530777 H         1 <1>         0.023311 
     59 H           2.011267   -1.945889    2.808664 H         1 <1>         0.023234 
     60 H           2.005941   -3.596919    2.133720 H         1 <1>         0.023234 
     61 H           1.523895   -2.223420    1.106145 H         1 <1>         0.023234 
     62 H           4.997792   -3.106910   -0.155760 H         1 <1>         0.023234 
     63 H           3.888283   -4.331036    0.512086 H         1 <1>         0.023234 
     64 H           3.266638   -3.097892   -0.604211 H         1 <1>         0.023234 
     65 H          -0.747036   -3.697019   -2.995054 H         1 <1>         0.022987 
     66 H          -2.534978   -3.546141   -2.992237 H         1 <1>         0.022987 
     67 H          -1.780792   -5.126252   -3.269788 H         1 <1>         0.022987 
     68 H           4.388837    0.404226   -2.341933 H         1 <1>         0.039072 
     69 H           5.752643    0.258974   -1.194437 H         1 <1>         0.039072 
     70 H           5.294772    1.851085   -1.855923 H         1 <1>         0.039072 
     71 H           4.546516    3.053730    0.207757 H         1 <1>         0.039072 
     72 H           5.430864    1.743987    1.044160 H         1 <1>         0.039072 
     73 H           3.751480    2.135767    1.502471 H         1 <1>         0.039072 
     74 H          -3.659198   -0.138477   -0.181407 H         1 <1>         0.154295 
     75 H          -2.441480    2.992382    2.275895 H         1 <1>         0.064346 
     76 H          -3.322675    3.365546   -1.983771 H         1 <1>         0.064346 
     77 H          -6.156517   -1.624971    0.592588 H         1 <1>         0.078217 
     78 H          -4.563011    1.570405    2.579411 H         1 <1>         0.062423 
     79 H          -5.436573    2.048091   -1.687977 H         1 <1>         0.062423 
     80 H          -7.082382    0.669794    0.841437 H         1 <1>         0.063587 
@<TRIPOS>BOND
     1    9    1 1    
     2    1   26 1    
     3   16    2 2    
     4   18    3 2    
     5   23    4 2    
     6   10    5 1    
     7    5   18 1    
     8    5   45 1    
     9   13    6 1    
    10    6   16 1    
    11    6   47 1    
    12   12    7 1    
    13    7   28 1    
    14    7   29 1    
    15   23    8 1    
    16    8   33 1    
    17    8   74 1    
    18   10    9 1    
    19    9   11 1    
    20    9   38 1    
    21   16   10 1    
    22   10   37 1    
    23   11   19 1    
    24   11   20 1    
    25   11   39 1    
    26   12   15 1    
    27   18   12 1    
    28   12   40 1    
    29   13   14 1    
    30   13   23 1    
    31   13   41 1    
    32   14   21 1    
    33   14   22 1    
    34   14   42 1    
    35   15   17 1    
    36   15   43 1    
    37   15   44 1    
    38   17   24 1    
    39   17   25 1    
    40   17   46 1    
    41   19   48 1    
    42   19   49 1    
    43   19   50 1    
    44   20   51 1    
    45   20   52 1    
    46   20   53 1    
    47   21   27 1    
    48   21   54 1    
    49   21   55 1    
    50   22   56 1    
    51   22   57 1    
    52   22   58 1    
    53   24   59 1    
    54   24   60 1    
    55   24   61 1    
    56   25   62 1    
    57   25   63 1    
    58   25   64 1    
    59   26   30 2    
    60   26   31 1    
    61   27   65 1    
    62   27   66 1    
    63   27   67 1    
    64   28   68 1    
    65   28   69 1    
    66   28   70 1    
    67   29   71 1    
    68   29   72 1    
    69   29   73 1    
    70   30   34 1    
    71   30   75 1    
    72   31   35 2    
    73   31   76 1    
    74   34   32 2    
    75   32   35 1    
    76   32   36 1    
    77   33   36 2    
    78   33   77 1    
    79   34   78 1    
    80   35   79 1    
    81   36   80 1    
@<TRIPOS>SUBSTRUCTURE
     1 ****        7 TEMP              0 ****  ****    0 ROOT 
@<TRIPOS>NORMAL
@<TRIPOS>FF_PBC
FORCE_FIELD_SETUP_FEATURE Force Field Setup information
v1.0  0 0.000000 0.000000 0.000000 0.000000 0.000000 0.000000 NONE 0 0 0 0 1 0 0 0 0 0 0 0 0
