@<TRIPOS>MOLECULE
MOL012979
   79    80     1     1     0
SMALL
GASTEIGER


@<TRIPOS>ATOM
      1 C          -3.708268   -1.273265   -0.085980 C.ar      1 <1>        -0.056085 
      2 C          -1.324142   -2.018002    0.067691 C.ar      1 <1>         0.076662 
      3 C          -2.607442    1.413698   -1.461188 C.2       1 <1>         0.233379 
      4 C          -3.645935   -1.234281   -1.503179 C.ar      1 <1>        -0.045729 
      5 C          -2.409063   -1.702821   -2.174712 C.ar      1 <1>        -0.056085 
      6 O          -0.170210   -2.329243    0.794239 O.3       1 <1>        -0.338898 
      7 C          -1.289800   -2.077252   -1.414217 C.ar      1 <1>        -0.031407 
      8 C          -0.029852    0.896394    1.123135 C.2       1 <1>         0.236530 
      9 C           0.357358   -1.508857    1.868452 C.3       1 <1>         0.094269 
     10 N          -0.784227    0.922324    0.002192 N.am      1 <1>        -0.302391 
     11 C          -2.521826   -1.671070    0.710059 C.ar      1 <1>        -0.031407 
     12 C          -4.822861   -0.692476   -2.330109 C.3       1 <1>        -0.012055 
     13 N           1.786277   -0.515655    0.128057 N.am      1 <1>        -0.300544 
     14 C           1.379925   -2.439591    2.601575 C.3       1 <1>        -0.017648 
     15 C           2.026678   -1.800433    3.867834 C.3       1 <1>        -0.060225 
     16 C          -4.503514    0.745084   -2.838578 C.3       1 <1>         0.015622 
     17 C           1.009457   -0.194099    1.327746 C.3       1 <1>         0.126456 
     18 N          -3.932890    1.521838   -1.732154 N.am      1 <1>        -0.313471 
     19 C           2.947870    0.129783   -0.144551 C.2       1 <1>         0.231152 
     20 C          -1.954045    1.810224   -0.143924 C.3       1 <1>         0.099633 
     21 C          -2.889656    1.677740    1.110764 C.3       1 <1>        -0.023630 
     22 N           3.456654    0.620048   -2.557160 N.3       1 <1>        -0.297435 
     23 C           3.751499   -0.254133   -1.383137 C.3       1 <1>         0.089097 
     24 O          -0.172834    1.726983    2.005025 O.2       1 <1>        -0.273666 
     25 O          -1.845644    0.939644   -2.290699 O.2       1 <1>        -0.273780 
     26 C           3.351929   -0.077751   -3.863774 C.3       1 <1>        -0.012325 
     27 C           2.471029    1.712254   -2.371057 C.3       1 <1>        -0.012325 
     28 C           0.676681   -3.763486    3.025335 C.3       1 <1>        -0.060225 
     29 O           3.339738    1.025089    0.585531 O.2       1 <1>        -0.274066 
     30 C           5.802567   -1.847817   -1.383280 C.3       1 <1>        -0.060787 
     31 C           5.899063    0.210992    0.086498 C.3       1 <1>        -0.060787 
     32 C          -3.086213    3.011305    1.893489 C.3       1 <1>        -0.044591 
     33 C          -3.978173    4.010224    1.102135 C.3       1 <1>        -0.062595 
     34 C           5.312192   -0.376521   -1.228577 C.3       1 <1>        -0.022592 
     35 C          -3.719013    2.735170    3.287778 C.3       1 <1>        -0.062595 
     36 H          -4.620323   -0.989165    0.429209 H         1 <1>         0.062108 
     37 H          -2.368385   -1.748287   -3.257001 H         1 <1>         0.062108 
     38 H          -0.387365   -2.414005   -1.911804 H         1 <1>         0.064336 
     39 H          -0.421390   -1.254387    2.604792 H         1 <1>         0.062716 
     40 H          -0.548247    0.318551   -0.759470 H         1 <1>         0.149508 
     41 H          -2.589777   -1.680042    1.790656 H         1 <1>         0.064336 
     42 H          -5.027825   -1.364145   -3.177823 H         1 <1>         0.032830 
     43 H          -5.729210   -0.656225   -1.705039 H         1 <1>         0.032830 
     44 H           1.413612   -1.228028   -0.468301 H         1 <1>         0.149577 
     45 H           2.182109   -2.696444    1.889344 H         1 <1>         0.032124 
     46 H           2.563507   -2.563120    4.453178 H         1 <1>         0.023314 
     47 H           2.766276   -1.025515    3.620079 H         1 <1>         0.023314 
     48 H           1.248149   -1.361260    4.510686 H         1 <1>         0.023314 
     49 H          -5.425932    1.219977   -3.217414 H         1 <1>         0.046507 
     50 H          -3.804618    0.689448   -3.689951 H         1 <1>         0.046507 
     51 H           1.661926    0.217898    2.108604 H         1 <1>         0.062102 
     52 H          -4.568578    2.026344   -1.149333 H         1 <1>         0.148744 
     53 H          -1.581746    2.838160   -0.265310 H         1 <1>         0.059449 
     54 H          -2.483273    0.927314    1.802521 H         1 <1>         0.029028 
     55 H          -3.886164    1.300200    0.860655 H         1 <1>         0.029028 
     56 H           3.383534   -1.259049   -1.637313 H         1 <1>         0.056086 
     57 H           3.371592    0.642271   -4.696154 H         1 <1>         0.039072 
     58 H           2.411558   -0.649616   -3.914088 H         1 <1>         0.039072 
     59 H           4.195275   -0.770507   -4.008241 H         1 <1>         0.039072 
     60 H           2.781290    2.365717   -1.542192 H         1 <1>         0.039072 
     61 H           1.472569    1.301319   -2.155625 H         1 <1>         0.039072 
     62 H           2.402890    2.343343   -3.270211 H         1 <1>         0.039072 
     63 H           1.390028   -4.443728    3.516357 H         1 <1>         0.023314 
     64 H           0.258269   -4.297255    2.158489 H         1 <1>         0.023314 
     65 H          -0.140738   -3.547055    3.731092 H         1 <1>         0.023314 
     66 H           5.482669   -2.275034   -2.346107 H         1 <1>         0.023293 
     67 H           6.901731   -1.899159   -1.346822 H         1 <1>         0.023293 
     68 H           5.400978   -2.473211   -0.571886 H         1 <1>         0.023293 
     69 H           5.698411    1.290546    0.159261 H         1 <1>         0.023293 
     70 H           6.992365    0.080917    0.109858 H         1 <1>         0.023293 
     71 H           5.478697   -0.302769    0.964585 H         1 <1>         0.023293 
     72 H          -2.100407    3.474627    2.067687 H         1 <1>         0.029618 
     73 H          -4.070086    4.957510    1.656229 H         1 <1>         0.023234 
     74 H          -3.552945    4.234571    0.112156 H         1 <1>         0.023234 
     75 H          -4.987990    3.595191    0.962328 H         1 <1>         0.023234 
     76 H           5.778201    0.192744   -2.052411 H         1 <1>         0.031524 
     77 H          -3.857023    3.676795    3.841337 H         1 <1>         0.023234 
     78 H          -3.069598    2.078456    3.889440 H         1 <1>         0.023234 
     79 H          -4.699249    2.248524    3.172783 H         1 <1>         0.023234 
@<TRIPOS>BOND
     1    1    4 2    
     2   11    1 1    
     3    1   36 1    
     4    6    2 1    
     5    2    7 1    
     6    2   11 2    
     7    3   18 1    
     8   20    3 1    
     9    3   25 2    
    10    5    4 1    
    11    4   12 1    
    12    7    5 2    
    13    5   37 1    
    14    9    6 1    
    15    7   38 1    
    16   10    8 1    
    17    8   17 1    
    18    8   24 2    
    19    9   14 1    
    20   17    9 1    
    21    9   39 1    
    22   10   20 1    
    23   10   40 1    
    24   11   41 1    
    25   12   16 1    
    26   12   42 1    
    27   12   43 1    
    28   17   13 1    
    29   13   19 1    
    30   13   44 1    
    31   14   15 1    
    32   14   28 1    
    33   14   45 1    
    34   15   46 1    
    35   15   47 1    
    36   15   48 1    
    37   16   18 1    
    38   16   49 1    
    39   16   50 1    
    40   17   51 1    
    41   18   52 1    
    42   19   23 1    
    43   19   29 2    
    44   20   21 1    
    45   20   53 1    
    46   21   32 1    
    47   21   54 1    
    48   21   55 1    
    49   23   22 1    
    50   22   26 1    
    51   22   27 1    
    52   23   34 1    
    53   23   56 1    
    54   26   57 1    
    55   26   58 1    
    56   26   59 1    
    57   27   60 1    
    58   27   61 1    
    59   27   62 1    
    60   28   63 1    
    61   28   64 1    
    62   28   65 1    
    63   34   30 1    
    64   30   66 1    
    65   30   67 1    
    66   30   68 1    
    67   34   31 1    
    68   31   69 1    
    69   31   70 1    
    70   31   71 1    
    71   32   33 1    
    72   32   35 1    
    73   32   72 1    
    74   33   73 1    
    75   33   74 1    
    76   33   75 1    
    77   34   76 1    
    78   35   77 1    
    79   35   78 1    
    80   35   79 1    
@<TRIPOS>SUBSTRUCTURE
     1 ****        2 TEMP              0 ****  ****    0 ROOT 
@<TRIPOS>NORMAL
@<TRIPOS>FF_PBC
FORCE_FIELD_SETUP_FEATURE Force Field Setup information
v1.0  0 0.000000 0.000000 0.000000 0.000000 0.000000 0.000000 NONE 0 0 0 0 1 0 0 0 0 0 0 0 0
