@<TRIPOS>MOLECULE
MOL009053
   48    50     1     1     0
SMALL
GASTEIGER


@<TRIPOS>ATOM
      1 O          -0.646276   -1.008593    0.898819 O.3       1 <1>        -0.333344 
      2 O           0.703090    2.603861    1.802549 O.3       1 <1>        -0.394312 
      3 O           1.281929   -3.246722    1.327909 O.3       1 <1>        -0.345313 
      4 O          -4.959610   -1.038663   -1.902254 O.3       1 <1>        -0.345340 
      5 O          -6.644608    0.881248   -0.699694 O.3       1 <1>        -0.357269 
      6 O           7.236264    1.669862   -2.020696 O.3       1 <1>        -0.390992 
      7 C          -0.114570    1.172104    0.007934 C.3       1 <1>         0.040673 
      8 C          -1.071103    0.372286    0.940802 C.3       1 <1>         0.099286 
      9 C           1.110435    0.280710    0.117757 C.ar      1 <1>        -0.006225 
     10 C           0.710451   -0.902417    0.614601 C.ar      1 <1>         0.110458 
     11 C           0.131066    2.625575    0.482521 C.3       1 <1>         0.053790 
     12 C          -2.534604    0.517357    0.517211 C.ar      1 <1>        -0.015139 
     13 C           2.520738    0.567174   -0.228169 C.ar      1 <1>        -0.048371 
     14 C           1.679917   -2.002569    0.830893 C.ar      1 <1>         0.106528 
     15 C           3.488518   -0.458179   -0.012619 C.ar      1 <1>        -0.022387 
     16 C          -3.056543   -0.317070   -0.484189 C.ar      1 <1>        -0.023487 
     17 C           3.033609   -1.768816    0.526615 C.ar      1 <1>        -0.021984 
     18 C          -3.411024    1.529789    1.154306 C.ar      1 <1>        -0.053490 
     19 C          -4.470403   -0.194197   -0.904162 C.ar      1 <1>         0.105741 
     20 C          -4.754327    1.650944    0.759731 C.ar      1 <1>        -0.029059 
     21 C           4.964032   -0.286860   -0.314419 C.2       1 <1>        -0.056294 
     22 C          -5.309054    0.768574   -0.299205 C.ar      1 <1>         0.102453 
     23 C           0.317488   -3.955739    0.531834 C.3       1 <1>         0.043136 
     24 C           5.584473    0.895779   -0.435055 C.2       1 <1>        -0.058388 
     25 C           7.058163    1.025609   -0.748215 C.3       1 <1>         0.062691 
     26 C          -5.754321   -2.126775   -1.404838 C.3       1 <1>         0.043136 
     27 H          -0.468334    1.139851   -1.035681 H         1 <1>         0.040076 
     28 H          -0.943611    0.698845    1.986510 H         1 <1>         0.065829 
     29 H          -0.830975    3.165247    0.484540 H         1 <1>         0.056395 
     30 H           0.814138    3.127936   -0.223031 H         1 <1>         0.056395 
     31 H           2.782927    1.533750   -0.637359 H         1 <1>         0.062707 
     32 H          -2.429521   -1.062030   -0.961446 H         1 <1>         0.064767 
     33 H           3.748618   -2.567137    0.690584 H         1 <1>         0.065001 
     34 H          -3.014708    2.179638    1.927997 H         1 <1>         0.062192 
     35 H           0.874772    3.473126    2.153136 H         1 <1>         0.209422 
     36 H          -5.385661    2.394446    1.235148 H         1 <1>         0.064413 
     37 H           5.544000   -1.202013   -0.432343 H         1 <1>         0.062105 
     38 H           0.701262   -4.111936   -0.488251 H         1 <1>         0.052871 
     39 H          -0.645565   -3.427809    0.479573 H         1 <1>         0.052871 
     40 H           0.146973   -4.936995    0.998938 H         1 <1>         0.052871 
     41 H           5.046222    1.832428   -0.304661 H         1 <1>         0.059478 
     42 H          -7.120334    1.573575   -0.256157 H         1 <1>         0.217422 
     43 H           7.552657    0.043679   -0.813266 H         1 <1>         0.060128 
     44 H           7.556754    1.599313    0.050856 H         1 <1>         0.060128 
     45 H          -6.074382   -2.737669   -2.261855 H         1 <1>         0.052871 
     46 H          -5.164081   -2.758087   -0.721769 H         1 <1>         0.052871 
     47 H          -6.649504   -1.757620   -0.880494 H         1 <1>         0.052871 
     48 H           6.865120    2.546291   -2.051139 H         1 <1>         0.209823 
@<TRIPOS>BOND
     1    1    8 1    
     2   10    1 1    
     3   11    2 1    
     4    2   35 1    
     5   14    3 1    
     6    3   23 1    
     7   19    4 1    
     8    4   26 1    
     9   22    5 1    
    10    5   42 1    
    11   25    6 1    
    12    6   48 1    
    13    7    8 1    
    14    9    7 1    
    15    7   11 1    
    16    7   27 1    
    17    8   12 1    
    18    8   28 1    
    19    9   10 2    
    20   13    9 1    
    21   14   10 1    
    22   11   29 1    
    23   11   30 1    
    24   12   16 2    
    25   12   18 1    
    26   15   13 2    
    27   13   31 1    
    28   17   14 2    
    29   15   17 1    
    30   21   15 1    
    31   16   19 1    
    32   16   32 1    
    33   17   33 1    
    34   18   20 2    
    35   18   34 1    
    36   19   22 2    
    37   20   22 1    
    38   20   36 1    
    39   24   21 2    
    40   21   37 1    
    41   23   38 1    
    42   23   39 1    
    43   23   40 1    
    44   24   25 1    
    45   24   41 1    
    46   25   43 1    
    47   25   44 1    
    48   26   45 1    
    49   26   46 1    
    50   26   47 1    
@<TRIPOS>SUBSTRUCTURE
     1 ****        1 TEMP              0 ****  ****    0 ROOT 
@<TRIPOS>NORMAL
@<TRIPOS>FF_PBC
FORCE_FIELD_SETUP_FEATURE Force Field Setup information
v1.0  0 0.000000 0.000000 0.000000 0.000000 0.000000 0.000000 NONE 0 0 0 0 1 0 0 0 0 0 0 0 0
