@<TRIPOS>MOLECULE
MOL002148
   31    32     1     1     0
SMALL
GASTEIGER


@<TRIPOS>ATOM
      1 C          -1.546740    2.718141    1.448822 C.3       1 <1>         0.090650 
      2 C          -2.378784    2.466236    0.164474 C.3       1 <1>         0.075955 
      3 C          -2.575250    0.939544   -0.052533 C.3       1 <1>        -0.021075 
      4 C          -1.209669    0.242849   -0.306401 C.3       1 <1>        -0.022351 
      5 C          -0.194466    0.713141    0.703386 C.2       1 <1>        -0.006650 
      6 C          -0.365614    1.793012    1.459951 C.2       1 <1>         0.050125 
      7 C           1.127168    0.189135    1.119258 C.2       1 <1>         0.086201 
      8 O           1.730818    0.891848    2.089885 O.3       1 <1>        -0.274172 
      9 C           0.837121    1.860211    2.285105 C.2       1 <1>         0.296599 
     10 O          -1.662435    3.034904   -0.946585 O.3       1 <1>        -0.389997 
     11 Cl         -2.500997    2.398516    2.903546 Cl        1 <1>        -0.113847 
     12 O           1.013411    2.746637    3.103946 O.2       1 <1>        -0.259115 
     13 C           1.760996   -0.887078    0.631364 C.2       1 <1>        -0.053070 
     14 C           1.277353   -1.796402   -0.472781 C.3       1 <1>        -0.032278 
     15 C           2.420674   -2.689790   -1.026653 C.3       1 <1>        -0.052380 
     16 C           1.916878   -3.606454   -2.172158 C.3       1 <1>        -0.064997 
     17 H          -1.208660    3.765673    1.480819 H         1 <1>         0.054229 
     18 H          -3.355198    2.971887    0.274902 H         1 <1>         0.061115 
     19 H          -3.244720    0.762986   -0.910661 H         1 <1>         0.029374 
     20 H          -3.051523    0.505342    0.841837 H         1 <1>         0.029374 
     21 H          -0.845618    0.514055   -1.309735 H         1 <1>         0.031490 
     22 H          -1.354467   -0.846401   -0.254219 H         1 <1>         0.031490 
     23 H          -2.123556    2.944490   -1.775050 H         1 <1>         0.209851 
     24 H           2.724112   -1.120467    1.087981 H         1 <1>         0.059779 
     25 H           0.480622   -2.444294   -0.075162 H         1 <1>         0.030812 
     26 H           0.884385   -1.197378   -1.306793 H         1 <1>         0.030812 
     27 H           3.235159   -2.049774   -1.406158 H         1 <1>         0.026559 
     28 H           2.824770   -3.319329   -0.215844 H         1 <1>         0.026559 
     29 H           2.741785   -4.232991   -2.546950 H         1 <1>         0.022987 
     30 H           1.112657   -4.266194   -1.810613 H         1 <1>         0.022987 
     31 H           1.529689   -3.002259   -3.007480 H         1 <1>         0.022987 
@<TRIPOS>BOND
     1    1    2 1    
     2    1    6 1    
     3    1   11 1    
     4    1   17 1    
     5    2    3 1    
     6    2   10 1    
     7    2   18 1    
     8    3    4 1    
     9    3   19 1    
    10    3   20 1    
    11    4    5 1    
    12    4   21 1    
    13    4   22 1    
    14    5    6 2    
    15    5    7 1    
    16    6    9 1    
    17    7    8 1    
    18    7   13 2    
    19    8    9 1    
    20    9   12 2    
    21   10   23 1    
    22   13   14 1    
    23   13   24 1    
    24   14   15 1    
    25   14   25 1    
    26   14   26 1    
    27   15   16 1    
    28   15   27 1    
    29   15   28 1    
    30   16   29 1    
    31   16   30 1    
    32   16   31 1    
@<TRIPOS>SUBSTRUCTURE
     1 ****        1 TEMP              0 ****  ****    0 ROOT 
@<TRIPOS>NORMAL
@<TRIPOS>FF_PBC
FORCE_FIELD_SETUP_FEATURE Force Field Setup information
v1.0  0 0.000000 0.000000 0.000000 0.000000 0.000000 0.000000 NONE 0 0 0 0 1 0 0 0 0 0 0 0 0
