@<TRIPOS>MOLECULE
MOL005752
   27    27     1     1     0
SMALL
GASTEIGER


@<TRIPOS>ATOM
      1 C          -0.131602   -0.880387    0.321093 C.3       1 <1>        -0.016695 
      2 C          -1.207076   -0.171590   -0.537685 C.3       1 <1>        -0.042485 
      3 C           1.261814   -0.316460   -0.054565 C.3       1 <1>        -0.027912 
      4 C          -0.168281   -2.392052    0.183200 C.2       1 <1>        -0.076311 
      5 C          -1.224717    1.337170   -0.183042 C.3       1 <1>        -0.029053 
      6 C           1.269834    1.191697   -0.125918 C.2       1 <1>        -0.082055 
      7 C          -0.293392   -3.180717    1.468383 C.3       1 <1>        -0.043768 
      8 C          -0.091273   -3.004378   -1.006931 C.2       1 <1>        -0.099437 
      9 C           0.160822    1.945766   -0.180218 C.2       1 <1>        -0.048370 
     10 C           0.209118    3.458379   -0.237723 C.3       1 <1>         0.065301 
     11 O           1.549126    3.967823   -0.099433 O.3       1 <1>        -0.390736 
     12 H          -0.333550   -0.609091    1.371994 H         1 <1>         0.034848 
     13 H          -2.198949   -0.615071   -0.349244 H         1 <1>         0.027409 
     14 H          -0.975523   -0.282380   -1.608865 H         1 <1>         0.027409 
     15 H           1.997410   -0.659745    0.691153 H         1 <1>         0.031314 
     16 H           1.576116   -0.689989   -1.041189 H         1 <1>         0.031314 
     17 H          -1.870684    1.858597   -0.908217 H         1 <1>         0.031088 
     18 H          -1.655609    1.480602    0.820889 H         1 <1>         0.031088 
     19 H           2.253182    1.662853   -0.137986 H         1 <1>         0.057252 
     20 H          -1.240950   -2.923434    1.965421 H         1 <1>         0.027436 
     21 H          -0.277683   -4.268698    1.302992 H         1 <1>         0.027436 
     22 H           0.541718   -2.924506    2.137833 H         1 <1>         0.027436 
     23 H          -0.120158   -4.090205   -1.091207 H         1 <1>         0.053440 
     24 H           0.005225   -2.451501   -1.939423 H         1 <1>         0.053440 
     25 H          -0.213383    3.782454   -1.203446 H         1 <1>         0.060387 
     26 H          -0.418410    3.856293    0.577337 H         1 <1>         0.060387 
     27 H           1.596872    4.918670   -0.134803 H         1 <1>         0.209834 
@<TRIPOS>BOND
     1    1    2 1    
     2    1    3 1    
     3    1    4 1    
     4    1   12 1    
     5    2    5 1    
     6    2   13 1    
     7    2   14 1    
     8    3    6 1    
     9    3   15 1    
    10    3   16 1    
    11    4    7 1    
    12    4    8 2    
    13    5    9 1    
    14    5   17 1    
    15    5   18 1    
    16    6    9 2    
    17    6   19 1    
    18    7   20 1    
    19    7   21 1    
    20    7   22 1    
    21    8   23 1    
    22    8   24 1    
    23    9   10 1    
    24   10   11 1    
    25   10   25 1    
    26   10   26 1    
    27   11   27 1    
@<TRIPOS>SUBSTRUCTURE
     1 ****        1 TEMP              0 ****  ****    0 ROOT 
@<TRIPOS>NORMAL
@<TRIPOS>FF_PBC
FORCE_FIELD_SETUP_FEATURE Force Field Setup information
v1.0  0 0.000000 0.000000 0.000000 0.000000 0.000000 0.000000 NONE 0 0 0 0 1 0 0 0 0 0 0 0 0
