@<TRIPOS>MOLECULE
MOL005388
   41    40     1     1     0
SMALL
GASTEIGER


@<TRIPOS>ATOM
      1 C           1.362847   -1.942280    3.392468 C.3       1 <1>        -0.065034 
      2 C          -0.150232   -1.931559    3.732666 C.3       1 <1>        -0.053312 
      3 C          -0.904273   -0.619013    3.347169 C.3       1 <1>        -0.044120 
      4 C          -0.831780   -0.289817    1.819635 C.3       1 <1>        -0.050226 
      5 C           0.309027    0.706738    1.452878 C.3       1 <1>        -0.050218 
      6 C           0.600075    0.806018   -0.078653 C.3       1 <1>        -0.043871 
      7 C          -0.661473    1.266543   -0.875319 C.3       1 <1>        -0.050459 
      8 C          -0.456647    1.520758   -2.398176 C.3       1 <1>        -0.052824 
      9 C           0.046007    0.266105   -3.165754 C.3       1 <1>        -0.053297 
     10 C           0.120620    0.532660   -4.694290 C.3       1 <1>        -0.055911 
     11 C           0.629375   -0.715969   -5.461084 C.3       1 <1>        -0.065276 
     12 C           1.805230    1.765551   -0.303302 C.3       1 <1>        -0.062415 
     13 C          -2.387847   -0.754646    3.801985 C.3       1 <1>        -0.062423 
     14 H           1.828070   -2.857709    3.791838 H         1 <1>         0.022986 
     15 H           1.524267   -1.933962    2.304087 H         1 <1>         0.022986 
     16 H           1.865883   -1.074701    3.846698 H         1 <1>         0.022986 
     17 H          -0.243269   -2.084180    4.821388 H         1 <1>         0.026521 
     18 H          -0.627677   -2.790677    3.232901 H         1 <1>         0.026521 
     19 H          -0.471394    0.220065    3.919227 H         1 <1>         0.029805 
     20 H          -0.731099   -1.224425    1.245939 H         1 <1>         0.026793 
     21 H          -1.776752    0.183619    1.510769 H         1 <1>         0.026793 
     22 H           0.049226    1.705330    1.841607 H         1 <1>         0.026794 
     23 H           1.235368    0.399732    1.956918 H         1 <1>         0.026794 
     24 H           0.896559   -0.200406   -0.419781 H         1 <1>         0.029813 
     25 H          -1.446943    0.499509   -0.788342 H         1 <1>         0.026785 
     26 H          -1.042486    2.196112   -0.421043 H         1 <1>         0.026785 
     27 H          -1.431470    1.815574   -2.823050 H         1 <1>         0.026537 
     28 H           0.230660    2.365391   -2.561076 H         1 <1>         0.026537 
     29 H           1.049997   -0.017453   -2.814550 H         1 <1>         0.026520 
     30 H          -0.638338   -0.577048   -2.975990 H         1 <1>         0.026520 
     31 H          -0.878975    0.803239   -5.073633 H         1 <1>         0.026265 
     32 H           0.803101    1.377182   -4.887840 H         1 <1>         0.026265 
     33 H           0.673715   -0.505448   -6.541431 H         1 <1>         0.022978 
     34 H           1.637887   -0.994258   -5.117405 H         1 <1>         0.022978 
     35 H          -0.047728   -1.568965   -5.298076 H         1 <1>         0.022978 
     36 H           2.154054    1.742779   -1.345680 H         1 <1>         0.023242 
     37 H           2.659485    1.473714    0.327046 H         1 <1>         0.023242 
     38 H           1.521491    2.797863   -0.047527 H         1 <1>         0.023242 
     39 H          -2.936497    0.185450    3.632832 H         1 <1>         0.023242 
     40 H          -2.450980   -0.989630    4.876058 H         1 <1>         0.023242 
     41 H          -2.887185   -1.557883    3.238193 H         1 <1>         0.023242 
@<TRIPOS>BOND
     1    1    2 1    
     2    1   14 1    
     3    1   15 1    
     4    1   16 1    
     5    2    3 1    
     6    2   17 1    
     7    2   18 1    
     8    3    4 1    
     9    3   13 1    
    10    3   19 1    
    11    4    5 1    
    12    4   20 1    
    13    4   21 1    
    14    5    6 1    
    15    5   22 1    
    16    5   23 1    
    17    6    7 1    
    18    6   12 1    
    19    6   24 1    
    20    7    8 1    
    21    7   25 1    
    22    7   26 1    
    23    8    9 1    
    24    8   27 1    
    25    8   28 1    
    26    9   10 1    
    27    9   29 1    
    28    9   30 1    
    29   10   11 1    
    30   10   31 1    
    31   10   32 1    
    32   11   33 1    
    33   11   34 1    
    34   11   35 1    
    35   12   36 1    
    36   12   37 1    
    37   12   38 1    
    38   13   39 1    
    39   13   40 1    
    40   13   41 1    
@<TRIPOS>SUBSTRUCTURE
     1 ****        1 TEMP              0 ****  ****    0 ROOT 
@<TRIPOS>NORMAL
@<TRIPOS>FF_PBC
FORCE_FIELD_SETUP_FEATURE Force Field Setup information
v1.0  0 0.000000 0.000000 0.000000 0.000000 0.000000 0.000000 NONE 0 0 0 0 1 0 0 0 0 0 0 0 0
