@<TRIPOS>MOLECULE
MOL008595
   68    67     1     1     0
SMALL
GASTEIGER


@<TRIPOS>ATOM
      1 C          -2.513649    5.519992   -0.318853 C.3       1 <1>        -0.053057 
      2 C          -1.151183    4.780386   -0.422244 C.3       1 <1>        -0.053057 
      3 C          -2.322998    7.061361   -0.270395 C.3       1 <1>        -0.053045 
      4 C          -1.351387    3.240168   -0.440546 C.3       1 <1>        -0.053057 
      5 C          -3.664742    7.848894   -0.301188 C.3       1 <1>        -0.052596 
      6 C           0.004785    2.487951   -0.523547 C.3       1 <1>        -0.053057 
      7 C          -4.570775    7.570203    0.930349 C.3       1 <1>        -0.044055 
      8 C          -0.211976    0.950109   -0.527691 C.3       1 <1>        -0.053057 
      9 C          -5.811501    8.504535    0.945703 C.3       1 <1>         0.033189 
     10 C           1.136060    0.180691   -0.582220 C.3       1 <1>        -0.053057 
     11 C          -6.716901    8.240831    2.120905 C.2       1 <1>         0.261905 
     12 C           0.898978   -1.354279   -0.564038 C.3       1 <1>        -0.053057 
     13 O          -7.809583    9.017654    2.171251 O.3       1 <1>        -0.318522 
     14 O          -6.463008    7.384572    2.954036 O.2       1 <1>        -0.264985 
     15 C           2.235692   -2.143944   -0.603084 C.3       1 <1>        -0.053057 
     16 C          -8.665612    8.743955    3.297570 C.3       1 <1>         0.045865 
     17 C           1.979045   -3.675692   -0.565858 C.3       1 <1>        -0.053057 
     18 C           3.306935   -4.480740   -0.590666 C.3       1 <1>        -0.053057 
     19 C           3.037475   -6.009792   -0.538415 C.3       1 <1>        -0.053057 
     20 C           4.361512   -6.822013   -0.544399 C.3       1 <1>        -0.053057 
     21 C           4.086133   -8.349679   -0.479636 C.3       1 <1>        -0.053065 
     22 C           5.408266   -9.165009   -0.473211 C.3       1 <1>        -0.053306 
     23 C           5.127874  -10.691206   -0.409496 C.3       1 <1>        -0.055911 
     24 C           6.446015  -11.508197   -0.399016 C.3       1 <1>        -0.065276 
     25 H          -3.138659    5.255790   -1.187604 H         1 <1>         0.026528 
     26 H          -3.022421    5.175470    0.594904 H         1 <1>         0.026528 
     27 H          -0.520537    5.056573    0.439026 H         1 <1>         0.026528 
     28 H          -0.632081    5.091195   -1.343770 H         1 <1>         0.026528 
     29 H          -1.758176    7.333075    0.636746 H         1 <1>         0.026529 
     30 H          -1.725920    7.369038   -1.145330 H         1 <1>         0.026529 
     31 H          -1.975778    2.964012   -1.306085 H         1 <1>         0.026528 
     32 H          -1.878935    2.931949    0.477247 H         1 <1>         0.026528 
     33 H          -3.424984    8.925390   -0.325327 H         1 <1>         0.026540 
     34 H          -4.215227    7.604677   -1.224721 H         1 <1>         0.026540 
     35 H           0.628585    2.766305    0.341788 H         1 <1>         0.026528 
     36 H           0.535282    2.786160   -1.442701 H         1 <1>         0.026528 
     37 H          -4.929488    6.528988    0.910621 H         1 <1>         0.027004 
     38 H          -3.992519    7.724799    1.856155 H         1 <1>         0.027004 
     39 H          -0.826526    0.670956   -1.399452 H         1 <1>         0.026528 
     40 H          -0.757041    0.659465    0.385439 H         1 <1>         0.026528 
     41 H          -5.488983    9.556438    0.994873 H         1 <1>         0.036606 
     42 H          -6.396972    8.361272    0.023751 H         1 <1>         0.036606 
     43 H           1.753824    0.465662    0.285228 H         1 <1>         0.026528 
     44 H           1.679776    0.458629   -1.500050 H         1 <1>         0.026528 
     45 H           0.283487   -1.637869   -1.433872 H         1 <1>         0.026528 
     46 H           0.347276   -1.624136    0.351445 H         1 <1>         0.026528 
     47 H           2.854645   -1.856203    0.262586 H         1 <1>         0.026528 
     48 H           2.786302   -1.885518   -1.522543 H         1 <1>         0.026528 
     49 H          -9.522867    9.430985    3.244361 H         1 <1>         0.052962 
     50 H          -8.141187    8.915962    4.251302 H         1 <1>         0.052962 
     51 H          -9.046526    7.710364    3.268572 H         1 <1>         0.052962 
     52 H           1.362630   -3.963350   -1.433462 H         1 <1>         0.026528 
     53 H           1.421553   -3.927439    0.351309 H         1 <1>         0.026528 
     54 H           3.924707   -4.190152    0.274938 H         1 <1>         0.026528 
     55 H           3.864349   -4.238131   -1.510306 H         1 <1>         0.026528 
     56 H           2.426203   -6.302274   -1.408204 H         1 <1>         0.026528 
     57 H           2.471096   -6.248039    0.377129 H         1 <1>         0.026528 
     58 H           4.974452   -6.526088    0.323123 H         1 <1>         0.026528 
     59 H           4.927018   -6.591121   -1.462321 H         1 <1>         0.026528 
     60 H           3.478690   -8.647337   -1.350342 H         1 <1>         0.026528 
     61 H           3.514223   -8.578625    0.434985 H         1 <1>         0.026528 
     62 H           6.015001   -8.869513    0.398682 H         1 <1>         0.026520 
     63 H           5.982452   -8.937629   -1.386466 H         1 <1>         0.026520 
     64 H           4.524440  -10.992089   -1.282122 H         1 <1>         0.026265 
     65 H           4.553610  -10.923015    0.503005 H         1 <1>         0.026265 
     66 H           6.223200  -12.586176   -0.355922 H         1 <1>         0.022978 
     67 H           7.056466  -11.241619    0.477840 H         1 <1>         0.022978 
     68 H           7.029904  -11.307582   -1.310871 H         1 <1>         0.022978 
@<TRIPOS>BOND
     1    1    2 1    
     2    1    3 1    
     3    1   25 1    
     4    1   26 1    
     5    2    4 1    
     6    2   27 1    
     7    2   28 1    
     8    3    5 1    
     9    3   29 1    
    10    3   30 1    
    11    4    6 1    
    12    4   31 1    
    13    4   32 1    
    14    5    7 1    
    15    5   33 1    
    16    5   34 1    
    17    6    8 1    
    18    6   35 1    
    19    6   36 1    
    20    7    9 1    
    21    7   37 1    
    22    7   38 1    
    23    8   10 1    
    24    8   39 1    
    25    8   40 1    
    26    9   11 1    
    27    9   41 1    
    28    9   42 1    
    29   10   12 1    
    30   10   43 1    
    31   10   44 1    
    32   11   13 1    
    33   11   14 2    
    34   12   15 1    
    35   12   45 1    
    36   12   46 1    
    37   13   16 1    
    38   15   17 1    
    39   15   47 1    
    40   15   48 1    
    41   16   49 1    
    42   16   50 1    
    43   16   51 1    
    44   17   18 1    
    45   17   52 1    
    46   17   53 1    
    47   18   19 1    
    48   18   54 1    
    49   18   55 1    
    50   19   20 1    
    51   19   56 1    
    52   19   57 1    
    53   20   21 1    
    54   20   58 1    
    55   20   59 1    
    56   21   22 1    
    57   21   60 1    
    58   21   61 1    
    59   22   23 1    
    60   22   62 1    
    61   22   63 1    
    62   23   24 1    
    63   23   64 1    
    64   23   65 1    
    65   24   66 1    
    66   24   67 1    
    67   24   68 1    
@<TRIPOS>SUBSTRUCTURE
     1 ****        1 TEMP              0 ****  ****    0 ROOT 
@<TRIPOS>NORMAL
@<TRIPOS>FF_PBC
FORCE_FIELD_SETUP_FEATURE Force Field Setup information
v1.0  0 0.000000 0.000000 0.000000 0.000000 0.000000 0.000000 NONE 0 0 0 0 1 0 0 0 0 0 0 0 0
