@<TRIPOS>MOLECULE
MOL002188
   21    20     1     1     0
SMALL
GASTEIGER


@<TRIPOS>ATOM
      1 C          -1.194225   -0.526403   -0.808799 C.3       1 <1>         0.148912 
      2 C           0.040889   -1.457123   -0.717571 C.3       1 <1>         0.068448 
      3 C          -0.791711    0.928186   -0.894079 C.2       1 <1>         0.291237 
      4 O          -2.047987   -0.791233    0.323015 O.3       1 <1>        -0.381254 
      5 C           0.864066   -1.193905    0.514716 C.2       1 <1>         0.264898 
      6 O          -1.796581    1.797369   -0.702539 O.3       1 <1>        -0.316573 
      7 O           0.357560    1.269421   -1.129906 O.2       1 <1>        -0.262083 
      8 O           1.931839   -1.994785    0.650097 O.3       1 <1>        -0.318448 
      9 O           0.577255   -0.319939    1.318337 O.2       1 <1>        -0.264876 
     10 C          -1.390366    3.178670   -0.764669 C.3       1 <1>         0.045950 
     11 C           2.717087   -1.723618    1.827902 C.3       1 <1>         0.045867 
     12 H          -1.742135   -0.759538   -1.738026 H         1 <1>         0.070330 
     13 H           0.682616   -1.327383   -1.603121 H         1 <1>         0.039671 
     14 H          -0.299946   -2.503510   -0.683778 H         1 <1>         0.039671 
     15 H          -2.812134   -0.221546    0.340104 H         1 <1>         0.210476 
     16 H          -2.281007    3.800680   -0.591858 H         1 <1>         0.052963 
     17 H          -0.647660    3.411611    0.015458 H         1 <1>         0.052963 
     18 H          -0.976541    3.431851   -1.754016 H         1 <1>         0.052963 
     19 H           3.558837   -2.431535    1.842804 H         1 <1>         0.052962 
     20 H           3.124402   -0.699885    1.809461 H         1 <1>         0.052962 
     21 H           2.125844   -1.867584    2.746567 H         1 <1>         0.052962 
@<TRIPOS>BOND
     1    1    2 1    
     2    1    3 1    
     3    1    4 1    
     4    1   12 1    
     5    2    5 1    
     6    2   13 1    
     7    2   14 1    
     8    3    6 1    
     9    3    7 2    
    10    4   15 1    
    11    5    8 1    
    12    5    9 2    
    13    6   10 1    
    14    8   11 1    
    15   10   16 1    
    16   10   17 1    
    17   10   18 1    
    18   11   19 1    
    19   11   20 1    
    20   11   21 1    
@<TRIPOS>SUBSTRUCTURE
     1 ****        1 TEMP              0 ****  ****    0 ROOT 
@<TRIPOS>NORMAL
@<TRIPOS>FF_PBC
FORCE_FIELD_SETUP_FEATURE Force Field Setup information
v1.0  0 0.000000 0.000000 0.000000 0.000000 0.000000 0.000000 NONE 0 0 0 0 1 0 0 0 0 0 0 0 0
