@<TRIPOS>MOLECULE
MOL000018
   29    30     1     1     0
SMALL
GASTEIGER


@<TRIPOS>ATOM
      1 C          -0.014611    0.771191    0.286300 C.3       1 <1>        -0.000699 
      2 C           1.538937    0.622305    0.256954 C.3       1 <1>         0.061365 
      3 C           1.722922   -0.921288    0.252363 C.3       1 <1>        -0.022981 
      4 C           0.255750   -1.434115    0.321869 C.3       1 <1>        -0.032937 
      5 C          -0.258704   -1.138706    1.760473 C.3       1 <1>        -0.049033 
      6 C          -0.463924    0.401945    1.733364 C.3       1 <1>        -0.044505 
      7 C          -0.528859   -0.428360   -0.565146 C.3       1 <1>        -0.024245 
      8 O           2.124186    1.263778   -0.891103 O.3       1 <1>        -0.391220 
      9 C          -2.078862   -0.651142   -0.566839 C.3       1 <1>        -0.058980 
     10 C          -0.102554   -0.429780   -2.070968 C.3       1 <1>        -0.058980 
     11 C          -0.499935    2.176041   -0.151915 C.3       1 <1>        -0.056708 
     12 H           1.997109    1.087092    1.148264 H         1 <1>         0.059878 
     13 H           2.332887   -1.271466    1.100511 H         1 <1>         0.029305 
     14 H           2.220777   -1.274826   -0.662886 H         1 <1>         0.029305 
     15 H           0.152974   -2.492617    0.032081 H         1 <1>         0.030693 
     16 H          -1.197534   -1.677535    1.964138 H         1 <1>         0.026830 
     17 H           0.461289   -1.450453    2.534425 H         1 <1>         0.026830 
     18 H           0.128964    0.913977    2.508149 H         1 <1>         0.027158 
     19 H          -1.513179    0.679634    1.916571 H         1 <1>         0.027158 
     20 H           3.066931    1.141222   -0.944202 H         1 <1>         0.209800 
     21 H          -2.302058   -1.618284   -1.042337 H         1 <1>         0.023525 
     22 H          -2.570020    0.138044   -1.155530 H         1 <1>         0.023525 
     23 H          -2.571266   -0.663522    0.411127 H         1 <1>         0.023525 
     24 H          -0.354997   -1.404215   -2.515849 H         1 <1>         0.023525 
     25 H          -0.655512    0.348024   -2.618530 H         1 <1>         0.023525 
     26 H           0.958521   -0.258288   -2.274363 H         1 <1>         0.023525 
     27 H          -0.069092    2.937148    0.515814 H         1 <1>         0.023604 
     28 H          -0.183632    2.392491   -1.182742 H         1 <1>         0.023604 
     29 H          -1.596505    2.241603   -0.099992 H         1 <1>         0.023604 
@<TRIPOS>BOND
     1    1    2 1    
     2    1    6 1    
     3    1    7 1    
     4    1   11 1    
     5    2    3 1    
     6    2    8 1    
     7    2   12 1    
     8    3    4 1    
     9    3   13 1    
    10    3   14 1    
    11    4    5 1    
    12    4    7 1    
    13    4   15 1    
    14    5    6 1    
    15    5   16 1    
    16    5   17 1    
    17    6   18 1    
    18    6   19 1    
    19    7    9 1    
    20    7   10 1    
    21    8   20 1    
    22    9   21 1    
    23    9   22 1    
    24    9   23 1    
    25   10   24 1    
    26   10   25 1    
    27   10   26 1    
    28   11   27 1    
    29   11   28 1    
    30   11   29 1    
@<TRIPOS>SUBSTRUCTURE
     1 ****        1 TEMP              0 ****  ****    0 ROOT 
@<TRIPOS>NORMAL
@<TRIPOS>FF_PBC
FORCE_FIELD_SETUP_FEATURE Force Field Setup information
v1.0  0 0.000000 0.000000 0.000000 0.000000 0.000000 0.000000 NONE 0 0 0 0 1 0 0 0 0 0 0 0 0
