@<TRIPOS>MOLECULE
MOL004712
   22    21     1     1     0
SMALL
GASTEIGER


@<TRIPOS>ATOM
      1 O           1.395999    0.709576   -2.535501 O.3       1 <1>        -0.392376 
      2 C           0.274052   -0.174708   -2.345003 C.3       1 <1>         0.072650 
      3 C          -0.779432    0.485550   -1.415485 C.3       1 <1>         0.106476 
      4 O          -1.393320    1.569223   -2.142933 O.3       1 <1>        -0.386870 
      5 C          -0.177039    1.041485   -0.091551 C.3       1 <1>         0.111083 
      6 O          -1.267456    1.680243    0.607987 O.3       1 <1>        -0.386511 
      7 C           0.510680   -0.012449    0.829250 C.3       1 <1>         0.106476 
      8 O           1.676769   -0.568192    0.194523 O.3       1 <1>        -0.386870 
      9 C          -0.448936   -1.145783    1.279128 C.3       1 <1>         0.072650 
     10 O           0.219757   -1.927869    2.287486 O.3       1 <1>        -0.392376 
     11 H           2.067801    0.345443   -3.104044 H         1 <1>         0.209508 
     12 H           0.605450   -1.136089   -1.919997 H         1 <1>         0.058361 
     13 H          -0.208424   -0.381394   -3.315512 H         1 <1>         0.058361 
     14 H          -1.571568   -0.247837   -1.187787 H         1 <1>         0.064289 
     15 H          -2.037429    2.033570   -1.615091 H         1 <1>         0.209989 
     16 H           0.572548    1.802176   -0.372528 H         1 <1>         0.064650 
     17 H          -0.996900    2.154321    1.388716 H         1 <1>         0.210003 
     18 H           0.840115    0.520208    1.739635 H         1 <1>         0.064289 
     19 H           2.121964   -1.199702    0.753275 H         1 <1>         0.209989 
     20 H          -1.379023   -0.713421    1.685452 H         1 <1>         0.058361 
     21 H          -0.692631   -1.790127    0.419321 H         1 <1>         0.058361 
     22 H          -0.308611   -2.650058    2.615788 H         1 <1>         0.209508 
@<TRIPOS>BOND
     1    1    2 1    
     2    1   11 1    
     3    2    3 1    
     4    2   12 1    
     5    2   13 1    
     6    3    4 1    
     7    3    5 1    
     8    3   14 1    
     9    4   15 1    
    10    5    6 1    
    11    5    7 1    
    12    5   16 1    
    13    6   17 1    
    14    7    8 1    
    15    7    9 1    
    16    7   18 1    
    17    8   19 1    
    18    9   10 1    
    19    9   20 1    
    20    9   21 1    
    21   10   22 1    
@<TRIPOS>SUBSTRUCTURE
     1 ****        1 TEMP              0 ****  ****    0 ROOT 
@<TRIPOS>NORMAL
@<TRIPOS>FF_PBC
FORCE_FIELD_SETUP_FEATURE Force Field Setup information
v1.0  0 0.000000 0.000000 0.000000 0.000000 0.000000 0.000000 NONE 0 0 0 0 1 0 0 0 0 0 0 0 0
