@<TRIPOS>MOLECULE
MOL004939
   32    34     1     1     0
SMALL
GASTEIGER


@<TRIPOS>ATOM
      1 C           0.676398   -0.118358    0.753603 C.2       1 <1>         0.093973 
      2 C           0.210687   -0.985924    1.665789 C.2       1 <1>         0.016922 
      3 C          -1.101892   -1.623084    1.510607 C.2       1 <1>         0.193680 
      4 O          -1.511202   -2.409359    2.348604 O.2       1 <1>        -0.287015 
      5 C          -1.906329   -1.266113    0.287967 C.ar      1 <1>         0.087024 
      6 C          -3.246061   -1.835938    0.007941 C.ar      1 <1>         0.118406 
      7 O          -3.816941   -2.748012    0.898190 O.3       1 <1>        -0.356593 
      8 C          -3.930988   -1.449428   -1.157688 C.ar      1 <1>         0.135890 
      9 C          -3.314440   -0.478905   -2.097295 C.ar      1 <1>         0.137659 
     10 O          -4.011941   -0.107507   -3.250908 O.3       1 <1>        -0.355272 
     11 C          -2.045240    0.054577   -1.822412 C.ar      1 <1>         0.136668 
     12 C          -1.320196   -0.351640   -0.592817 C.ar      1 <1>         0.128667 
     13 O          -0.055462    0.189033   -0.332406 O.3       1 <1>        -0.305131 
     14 C           2.026542    0.570903    0.862525 C.ar      1 <1>         0.005752 
     15 C           2.412592    1.508742   -0.225156 C.ar      1 <1>        -0.049682 
     16 C           3.637930    2.183928   -0.201240 C.ar      1 <1>        -0.031304 
     17 C           4.586100    1.979312    0.915347 C.ar      1 <1>         0.072619 
     18 O           5.803169    2.666387    0.914143 O.3       1 <1>        -0.359832 
     19 C           4.238029    1.098513    1.949248 C.ar      1 <1>        -0.031304 
     20 C           2.938620    0.383532    1.922470 C.ar      1 <1>        -0.049682 
     21 O          -5.193496   -1.987081   -1.420498 O.3       1 <1>        -0.355318 
     22 O          -1.476162    0.966822   -2.714514 O.3       1 <1>        -0.355300 
     23 H           0.744969   -1.280287    2.563855 H         1 <1>         0.068219 
     24 H          -4.676359   -3.042867    0.611992 H         1 <1>         0.217446 
     25 H          -3.523615    0.517908   -3.778727 H         1 <1>         0.217503 
     26 H           1.741270    1.682358   -1.059183 H         1 <1>         0.062503 
     27 H           3.904114    2.864803   -1.002834 H         1 <1>         0.064339 
     28 H           6.359198    2.483862    1.663161 H         1 <1>         0.217313 
     29 H           4.915903    0.931020    2.779553 H         1 <1>         0.064339 
     30 H           2.727811   -0.281792    2.747986 H         1 <1>         0.062503 
     31 H          -5.553855   -1.650044   -2.235298 H         1 <1>         0.217503 
     32 H          -0.617870    1.256041   -2.420498 H         1 <1>         0.217503 
@<TRIPOS>BOND
     1    1    2 2    
     2    1   13 1    
     3    1   14 1    
     4    2    3 1    
     5    2   23 1    
     6    3    4 2    
     7    3    5 1    
     8    5    6 1    
     9    5   12 2    
    10    6    7 1    
    11    6    8 2    
    12    7   24 1    
    13    8    9 1    
    14    8   21 1    
    15    9   10 1    
    16    9   11 2    
    17   10   25 1    
    18   11   12 1    
    19   11   22 1    
    20   12   13 1    
    21   14   15 1    
    22   14   20 2    
    23   15   16 2    
    24   15   26 1    
    25   16   17 1    
    26   16   27 1    
    27   17   18 1    
    28   17   19 2    
    29   18   28 1    
    30   19   20 1    
    31   19   29 1    
    32   20   30 1    
    33   21   31 1    
    34   22   32 1    
@<TRIPOS>SUBSTRUCTURE
     1 ****        1 TEMP              0 ****  ****    0 ROOT 
@<TRIPOS>NORMAL
@<TRIPOS>FF_PBC
FORCE_FIELD_SETUP_FEATURE Force Field Setup information
v1.0  0 0.000000 0.000000 0.000000 0.000000 0.000000 0.000000 NONE 0 0 0 0 1 0 0 0 0 0 0 0 0
