@<TRIPOS>MOLECULE
MOL002183
   21    21     1     1     0
SMALL
GASTEIGER


@<TRIPOS>ATOM
      1 C           0.423047   -0.374247   -0.167229 C.2       1 <1>         0.028445 
      2 C          -0.571191   -1.377619    0.277661 C.2       1 <1>         0.246919 
      3 C           1.575694   -0.849071   -0.659880 C.2       1 <1>         0.003713 
      4 C           0.221894    1.129430   -0.101638 C.3       1 <1>        -0.021814 
      5 N          -0.272008   -2.686554    0.165478 N.am      1 <1>        -0.260772 
      6 O          -1.646479   -1.034790    0.739728 O.2       1 <1>        -0.270102 
      7 N           1.809489   -2.178355   -0.743146 N.am      1 <1>        -0.299531 
      8 C          -1.131617    1.650883    0.452999 C.3       1 <1>        -0.051713 
      9 C           0.906826   -3.095823   -0.339916 C.2       1 <1>         0.160745 
     10 C          -1.186549    3.201806    0.443906 C.3       1 <1>        -0.064978 
     11 S           1.255236   -4.772122   -0.468782 S.2       1 <1>        -0.045308 
     12 H           2.343515   -0.150865   -1.001878 H         1 <1>         0.078615 
     13 H           0.343904    1.524886   -1.123166 H         1 <1>         0.031508 
     14 H           1.028870    1.545246    0.523389 H         1 <1>         0.031508 
     15 H          -0.945832   -3.362309    0.466657 H         1 <1>         0.157090 
     16 H           2.682831   -2.498846   -1.117140 H         1 <1>         0.153555 
     17 H          -1.268059    1.304026    1.490934 H         1 <1>         0.026578 
     18 H          -1.960164    1.268821   -0.166491 H         1 <1>         0.026578 
     19 H          -2.153431    3.548692    0.841987 H         1 <1>         0.022987 
     20 H          -1.073770    3.586475   -0.581796 H         1 <1>         0.022987 
     21 H          -0.381907    3.620335    1.068524 H         1 <1>         0.022987 
@<TRIPOS>BOND
     1    1    2 1    
     2    1    3 2    
     3    1    4 1    
     4    2    5 1    
     5    2    6 2    
     6    3    7 1    
     7    3   12 1    
     8    4    8 1    
     9    4   13 1    
    10    4   14 1    
    11    5    9 1    
    12    5   15 1    
    13    7    9 1    
    14    7   16 1    
    15    8   10 1    
    16    8   17 1    
    17    8   18 1    
    18    9   11 2    
    19   10   19 1    
    20   10   20 1    
    21   10   21 1    
@<TRIPOS>SUBSTRUCTURE
     1 ****        1 TEMP              0 ****  ****    0 ROOT 
@<TRIPOS>NORMAL
@<TRIPOS>FF_PBC
FORCE_FIELD_SETUP_FEATURE Force Field Setup information
v1.0  0 0.000000 0.000000 0.000000 0.000000 0.000000 0.000000 NONE 0 0 0 0 1 0 0 0 0 0 0 0 0
