@<TRIPOS>MOLECULE
MOL012952
   19    20     1     1     0
SMALL
GASTEIGER


@<TRIPOS>ATOM
      1 O          -0.712264    2.188700   -0.595513 O.3       1 <1>        -0.357304 
      2 O          -1.077385   -2.775478   -0.100495 O.2       1 <1>        -0.290724 
      3 N          -1.799894    0.135977   -0.032287 N.pl3     1 <1>        -0.318881 
      4 C           0.501720    0.245540   -0.006802 C.2       1 <1>        -0.019489 
      5 C           1.763451   -0.575315    0.013308 C.3       1 <1>        -0.020390 
      6 C          -0.632785   -0.440879   -0.035033 C.2       1 <1>         0.073164 
      7 C           1.219750   -2.039392   -0.036092 C.3       1 <1>         0.015527 
      8 C           0.523413    1.745643    0.002558 C.3       1 <1>         0.072843 
      9 C          -0.273869   -1.857568   -0.062658 C.2       1 <1>         0.177097 
     10 C          -1.879627    1.595055    0.011990 C.3       1 <1>         0.111658 
     11 H          -2.657070   -0.437292   -0.080000 H         1 <1>         0.148323 
     12 H           2.389363   -0.340106   -0.862292 H         1 <1>         0.031552 
     13 H           2.330548   -0.374382    0.936188 H         1 <1>         0.031552 
     14 H           1.510177   -2.619389    0.854018 H         1 <1>         0.034860 
     15 H           1.545306   -2.572106   -0.943519 H         1 <1>         0.034860 
     16 H           1.353323    2.130324   -0.608948 H         1 <1>         0.060797 
     17 H           0.632782    2.117111    1.033272 H         1 <1>         0.060797 
     18 H          -2.760586    1.948704   -0.547099 H         1 <1>         0.076879 
     19 H          -1.976151    1.925051    1.059203 H         1 <1>         0.076879 
@<TRIPOS>BOND
     1    8    1 1    
     2   10    1 1    
     3    9    2 2    
     4    6    3 1    
     5    3   10 1    
     6    3   11 1    
     7    4    5 1    
     8    6    4 2    
     9    4    8 1    
    10    5    7 1    
    11    5   12 1    
    12    5   13 1    
    13    6    9 1    
    14    7    9 1    
    15    7   14 1    
    16    7   15 1    
    17    8   16 1    
    18    8   17 1    
    19   10   18 1    
    20   10   19 1    
@<TRIPOS>SUBSTRUCTURE
     1 ****        4 TEMP              0 ****  ****    0 ROOT 
@<TRIPOS>NORMAL
@<TRIPOS>FF_PBC
FORCE_FIELD_SETUP_FEATURE Force Field Setup information
v1.0  0 0.000000 0.000000 0.000000 0.000000 0.000000 0.000000 NONE 0 0 0 0 1 0 0 0 0 0 0 0 0
