@<TRIPOS>MOLECULE
MOL004960
   86    90     1     1     0
SMALL
GASTEIGER


@<TRIPOS>ATOM
      1 C          -5.533835   -0.761053   -1.774780 C.3       1 <1>        -0.025820 
      2 C          -5.599906   -2.192097   -1.191395 C.3       1 <1>         0.060638 
      3 C          -4.398616   -3.091810   -1.649440 C.3       1 <1>        -0.005578 
      4 C          -3.050620   -2.280107   -1.422746 C.3       1 <1>        -0.027446 
      5 C          -2.912920   -0.799699   -1.965050 C.3       1 <1>        -0.018250 
      6 C          -4.191799   -0.041492   -1.469218 C.3       1 <1>        -0.044330 
      7 C          -1.741176   -3.068019   -1.687914 C.3       1 <1>        -0.048587 
      8 C          -0.477848   -2.404439   -1.052842 C.3       1 <1>        -0.045876 
      9 C          -0.605305   -0.924369   -0.530059 C.3       1 <1>        -0.012656 
     10 C          -1.533042   -0.121448   -1.501861 C.3       1 <1>         0.033332 
     11 C           0.852378   -0.251258   -0.412828 C.3       1 <1>        -0.004330 
     12 C           0.746243    1.192645    0.069654 C.2       1 <1>        -0.056101 
     13 C          -0.398721    1.849171   -0.177456 C.2       1 <1>        -0.018838 
     14 C          -1.534658    1.296409   -0.949546 C.2       1 <1>         0.160199 
     15 C           1.728663   -1.124042    0.555199 C.3       1 <1>        -0.042787 
     16 C           2.990422   -0.431243    1.134144 C.3       1 <1>        -0.043901 
     17 C           2.690899    0.943731    1.803703 C.3       1 <1>         0.001346 
     18 C           1.966368    1.836910    0.743190 C.3       1 <1>        -0.010239 
     19 C           1.633793   -0.065777   -1.769813 C.3       1 <1>        -0.055302 
     20 O          -2.470373    2.054382   -1.131813 O.2       1 <1>        -0.292347 
     21 O          -6.891468   -2.682561   -1.608050 O.3       1 <1>        -0.391248 
     22 C          -4.421020   -4.386712   -0.746985 C.3       1 <1>        -0.057190 
     23 C          -4.627288   -3.614499   -3.104976 C.3       1 <1>        -0.057190 
     24 C          -2.918342   -0.693656   -3.532045 C.3       1 <1>        -0.058618 
     25 C          -1.305275   -0.889472    0.884773 C.3       1 <1>        -0.058099 
     26 H          -6.354287   -0.178106   -1.320079 H         1 <1>         0.029038 
     27 H          -5.755000   -0.793703   -2.849603 H         1 <1>         0.029038 
     28 H          -5.581029   -2.091585   -0.091278 H         1 <1>         0.059852 
     29 H          -3.081308   -2.215619   -0.336835 H         1 <1>         0.031221 
     30 H          -4.148204    0.129142   -0.384618 H         1 <1>         0.027160 
     31 H          -4.290729    0.934971   -1.965644 H         1 <1>         0.027160 
     32 H          -1.788849   -4.089780   -1.279172 H         1 <1>         0.026846 
     33 H          -1.615859   -3.193650   -2.775346 H         1 <1>         0.026846 
     34 H           0.293266   -2.503587   -1.821063 H         1 <1>         0.027107 
     35 H          -0.123851   -3.031320   -0.220214 H         1 <1>         0.027107 
     36 H          -0.912605   -0.026081   -2.399690 H         1 <1>         0.039170 
     37 H          -0.563950    2.869541    0.158686 H         1 <1>         0.065218 
     38 H           2.066071   -2.027735    0.018291 H         1 <1>         0.027393 
     39 H           1.150344   -1.475926    1.421221 H         1 <1>         0.027393 
     40 H           3.712694   -0.301197    0.320216 H         1 <1>         0.027177 
     41 H           3.462476   -1.105768    1.867609 H         1 <1>         0.027177 
     42 C           1.832990    0.735199    3.094940 C.3       1 <1>        -0.056635 
     43 C           4.067387    1.589217    2.194743 C.3       1 <1>         0.074909 
     44 C           3.925145    3.035829    2.731905 C.3       1 <1>        -0.011018 
     45 H           2.670539    1.931571   -0.094205 H         1 <1>         0.035227 
     46 H           1.205592    0.732421   -2.392147 H         1 <1>         0.023829 
     47 H           1.696851   -0.961633   -2.392905 H         1 <1>         0.023829 
     48 H           2.678029    0.223155   -1.614795 H         1 <1>         0.023829 
     49 H          -7.161702   -3.500604   -1.214653 H         1 <1>         0.209800 
     50 H          -3.735691   -5.163434   -1.115911 H         1 <1>         0.023587 
     51 H          -5.409369   -4.867149   -0.736503 H         1 <1>         0.023587 
     52 H          -4.164908   -4.165649    0.303002 H         1 <1>         0.023587 
     53 H          -3.719759   -4.093607   -3.496326 H         1 <1>         0.023587 
     54 H          -4.949938   -2.843542   -3.806721 H         1 <1>         0.023587 
     55 H          -5.429851   -4.367435   -3.121205 H         1 <1>         0.023587 
     56 H          -2.743554    0.355596   -3.824866 H         1 <1>         0.023535 
     57 H          -3.847528   -0.970663   -4.028894 H         1 <1>         0.023535 
     58 H          -2.119170   -1.294040   -3.991278 H         1 <1>         0.023535 
     59 H          -0.864165   -0.137940    1.539070 H         1 <1>         0.023553 
     60 H          -2.352687   -0.573373    0.868744 H         1 <1>         0.023553 
     61 H          -1.255423   -1.853375    1.413508 H         1 <1>         0.023553 
     62 C           3.107024    3.982205    1.795424 C.3       1 <1>         0.056069 
     63 C           1.793927    3.299361    1.267126 C.3       1 <1>        -0.031356 
     64 H           4.697817    1.693161    1.300736 H         1 <1>         0.060788 
     65 O           4.615505    0.861874    3.322215 O.3       1 <1>        -0.311488 
     66 H           4.936417    3.448288    2.883246 H         1 <1>         0.030059 
     67 H           3.492075    2.987042    3.738699 H         1 <1>         0.030059 
     68 C           3.984676    4.448709    0.575875 C.3       1 <1>        -0.050396 
     69 C           2.787941    5.228836    2.628810 C.2       1 <1>         0.265645 
     70 H           1.003106    3.267418    2.025054 H         1 <1>         0.028123 
     71 H           1.434682    3.947583    0.454711 H         1 <1>         0.028123 
     72 H           2.326228    0.031761    3.780701 H         1 <1>         0.023605 
     73 H           0.848288    0.328097    2.871431 H         1 <1>         0.023605 
     74 H           1.655335    1.662103    3.648564 H         1 <1>         0.023605 
     75 C           5.743575    0.147828    3.197294 C.2       1 <1>         0.259313 
     76 O           6.123949   -0.477930    4.176960 O.2       1 <1>        -0.265274 
     77 C           6.569363    0.102770    1.939222 C.3       1 <1>         0.021443 
     78 H           5.004086    4.722856    0.891435 H         1 <1>         0.023987 
     79 H           3.536793    5.338185    0.102118 H         1 <1>         0.023987 
     80 H           4.078625    3.686105   -0.207744 H         1 <1>         0.023987 
     81 O           3.271622    6.314978    2.357588 O.2       1 <1>        -0.264566 
     82 O           1.974092    5.173041    3.694634 O.3       1 <1>        -0.330856 
     83 H           7.039518    1.082991    1.772735 H         1 <1>         0.033023 
     84 H           7.371429   -0.641488    2.051258 H         1 <1>         0.033023 
     85 H           5.987909   -0.188768    1.056073 H         1 <1>         0.033023 
     86 H           1.619680    4.325212    3.921070 H         1 <1>         0.220226 
@<TRIPOS>BOND
     1    1    2 1    
     2    1    6 1    
     3    1   26 1    
     4    1   27 1    
     5    2    3 1    
     6    2   21 1    
     7    2   28 1    
     8    3    4 1    
     9    3   22 1    
    10    3   23 1    
    11    4    5 1    
    12    4    7 1    
    13    4   29 1    
    14    5    6 1    
    15    5   10 1    
    16    5   24 1    
    17    6   30 1    
    18    6   31 1    
    19    7    8 1    
    20    7   32 1    
    21    7   33 1    
    22    8    9 1    
    23    8   34 1    
    24    8   35 1    
    25    9   10 1    
    26    9   11 1    
    27    9   25 1    
    28   10   14 1    
    29   10   36 1    
    30   11   12 1    
    31   11   15 1    
    32   11   19 1    
    33   12   13 2    
    34   12   18 1    
    35   13   14 1    
    36   13   37 1    
    37   14   20 2    
    38   15   16 1    
    39   15   38 1    
    40   15   39 1    
    41   16   17 1    
    42   16   40 1    
    43   16   41 1    
    44   17   18 1    
    45   17   42 1    
    46   17   43 1    
    47   18   45 1    
    48   18   63 1    
    49   19   46 1    
    50   19   47 1    
    51   19   48 1    
    52   21   49 1    
    53   22   50 1    
    54   22   51 1    
    55   22   52 1    
    56   23   53 1    
    57   23   54 1    
    58   23   55 1    
    59   24   56 1    
    60   24   57 1    
    61   24   58 1    
    62   25   59 1    
    63   25   60 1    
    64   25   61 1    
    65   42   72 1    
    66   42   73 1    
    67   42   74 1    
    68   43   44 1    
    69   43   64 1    
    70   43   65 1    
    71   44   62 1    
    72   44   66 1    
    73   44   67 1    
    74   62   63 1    
    75   62   68 1    
    76   62   69 1    
    77   63   70 1    
    78   63   71 1    
    79   65   75 1    
    80   68   78 1    
    81   68   79 1    
    82   68   80 1    
    83   69   81 2    
    84   69   82 1    
    85   75   76 2    
    86   75   77 1    
    87   77   83 1    
    88   77   84 1    
    89   77   85 1    
    90   82   86 1    
@<TRIPOS>SUBSTRUCTURE
     1 ****        1 TEMP              0 ****  ****    0 ROOT 
@<TRIPOS>NORMAL
@<TRIPOS>FF_PBC
FORCE_FIELD_SETUP_FEATURE Force Field Setup information
v1.0  0 0.000000 0.000000 0.000000 0.000000 0.000000 0.000000 NONE 0 0 0 0 1 0 0 0 0 0 0 0 0
