@<TRIPOS>MOLECULE
MOL004908
   44    47     1     1     0
SMALL
GASTEIGER


@<TRIPOS>ATOM
      1 C          -2.006459   -1.044411   -0.043860 C.ar      1 <1>         0.035007 
      2 C          -0.738460   -0.272855    0.007632 C.ar      1 <1>         0.088953 
      3 C          -1.983682   -2.386479   -0.054558 C.ar      1 <1>         0.086883 
      4 C          -3.348352   -0.352988   -0.084840 C.2       1 <1>        -0.050887 
      5 C           0.442957   -0.931308   -0.000939 C.ar      1 <1>        -0.016010 
      6 O          -0.787813    1.123528    0.068677 O.3       1 <1>        -0.343144 
      7 C          -0.691339   -3.105209   -0.066702 C.ar      1 <1>        -0.030640 
      8 O          -3.175216   -3.111352   -0.050195 O.3       1 <1>        -0.334125 
      9 C          -4.419436   -1.075252   -0.431795 C.2       1 <1>        -0.051917 
     10 C           1.789358   -0.200378    0.055700 C.3       1 <1>        -0.016187 
     11 C           0.459400   -2.414778   -0.051754 C.ar      1 <1>        -0.053632 
     12 C           0.336923    1.764760    0.689733 C.3       1 <1>         0.061423 
     13 C          -4.261526   -2.535679   -0.793471 C.3       1 <1>         0.088837 
     14 C           1.618002    1.336081   -0.060474 C.3       1 <1>         0.014534 
     15 C          -5.535014   -3.344504   -0.432002 C.3       1 <1>        -0.031936 
     16 C          -3.947108   -2.663650   -2.306584 C.3       1 <1>        -0.031936 
     17 C           2.856840    2.086281    0.464111 C.ar      1 <1>        -0.011921 
     18 C           3.644883    2.959650   -0.445115 C.ar      1 <1>         0.078527 
     19 C           3.256212    1.959805    1.805891 C.ar      1 <1>        -0.053353 
     20 C           4.771738    3.643537    0.045965 C.ar      1 <1>        -0.001893 
     21 O           3.252896    3.089689   -1.781430 O.3       1 <1>        -0.359468 
     22 C           4.447428    2.677824    2.315643 C.ar      1 <1>        -0.031512 
     23 C           5.188964    3.504955    1.459383 C.ar      1 <1>         0.075035 
     24 O           6.314468    4.201297    1.909426 O.3       1 <1>        -0.359750 
     25 H          -3.426479    0.706552    0.156534 H         1 <1>         0.062283 
     26 H          -0.686769   -4.189411   -0.093801 H         1 <1>         0.064357 
     27 H          -5.401824   -0.606443   -0.472629 H         1 <1>         0.060053 
     28 H           2.232638   -0.479725    1.021326 H         1 <1>         0.032055 
     29 H           2.453208   -0.564916   -0.745279 H         1 <1>         0.032055 
     30 H           1.409479   -2.940341   -0.072303 H         1 <1>         0.062188 
     31 H           0.201994    2.854869    0.616994 H         1 <1>         0.057101 
     32 H           0.373426    1.484366    1.753094 H         1 <1>         0.057101 
     33 H           1.445405    1.578151   -1.122374 H         1 <1>         0.037526 
     34 H          -5.412661   -4.397833   -0.725706 H         1 <1>         0.026052 
     35 H          -5.707769   -3.305263    0.654054 H         1 <1>         0.026052 
     36 H          -6.416497   -2.935591   -0.947454 H         1 <1>         0.026052 
     37 H          -3.797437   -3.722448   -2.566030 H         1 <1>         0.026052 
     38 H          -4.776504   -2.262251   -2.906918 H         1 <1>         0.026052 
     39 H          -3.028807   -2.113589   -2.562491 H         1 <1>         0.026052 
     40 H           2.700414    1.335210    2.494824 H         1 <1>         0.062197 
     41 H           5.356663    4.285482   -0.603079 H         1 <1>         0.066910 
     42 H           3.763508    3.711265   -2.287887 H         1 <1>         0.217326 
     43 H           4.735604    2.556153    3.354015 H         1 <1>         0.064330 
     44 H           6.496545    4.097298    2.836668 H         1 <1>         0.217315 
@<TRIPOS>BOND
     1    1    2 1    
     2    1    3 2    
     3    1    4 1    
     4    2    5 2    
     5    2    6 1    
     6    3    7 1    
     7    3    8 1    
     8    4    9 2    
     9    4   25 1    
    10    5   10 1    
    11    5   11 1    
    12    6   12 1    
    13    7   11 2    
    14    7   26 1    
    15    8   13 1    
    16    9   13 1    
    17    9   27 1    
    18   10   14 1    
    19   10   28 1    
    20   10   29 1    
    21   11   30 1    
    22   12   14 1    
    23   12   31 1    
    24   12   32 1    
    25   13   15 1    
    26   13   16 1    
    27   14   17 1    
    28   14   33 1    
    29   15   34 1    
    30   15   35 1    
    31   15   36 1    
    32   16   37 1    
    33   16   38 1    
    34   16   39 1    
    35   17   18 1    
    36   17   19 2    
    37   18   20 2    
    38   18   21 1    
    39   19   22 1    
    40   19   40 1    
    41   20   23 1    
    42   20   41 1    
    43   21   42 1    
    44   22   23 2    
    45   22   43 1    
    46   23   24 1    
    47   24   44 1    
@<TRIPOS>SUBSTRUCTURE
     1 ****        1 TEMP              0 ****  ****    0 ROOT 
@<TRIPOS>NORMAL
@<TRIPOS>FF_PBC
FORCE_FIELD_SETUP_FEATURE Force Field Setup information
v1.0  0 0.000000 0.000000 0.000000 0.000000 0.000000 0.000000 NONE 0 0 0 0 1 0 0 0 0 0 0 0 0
