@<TRIPOS>MOLECULE
MOL006931
   50    52     1     1     0
SMALL
GASTEIGER


@<TRIPOS>ATOM
      1 C          -2.040141    2.932793    0.926380 C.ar      1 <1>         0.105678 
      2 C          -1.896694    1.459131    0.963138 C.ar      1 <1>        -0.025385 
      3 C          -0.741472    0.827540    0.418519 C.ar      1 <1>        -0.037016 
      4 C           0.303833    1.679288   -0.207814 C.ar      1 <1>        -0.055390 
      5 C           0.165808    3.081205   -0.239846 C.ar      1 <1>        -0.029122 
      6 C          -1.028571    3.732050    0.343361 C.ar      1 <1>         0.102452 
      7 O          -1.143560    5.123394    0.307792 O.3       1 <1>        -0.357269 
      8 C          -0.594674   -0.704618    0.469415 C.3       1 <1>         0.014878 
      9 O          -3.174130    3.538501    1.469138 O.3       1 <1>        -0.345341 
     10 O          -0.243939   -1.482757    4.177480 O.3       1 <1>        -0.394694 
     11 O           2.039764   -0.081228    4.004104 O.3       1 <1>        -0.394714 
     12 O          -0.550493   -1.499421   -4.467847 O.3       1 <1>        -0.357262 
     13 O           2.200857   -2.436847   -4.321455 O.3       1 <1>        -0.345341 
     14 C          -4.339623    3.445107    0.634138 C.3       1 <1>         0.043136 
     15 C           0.108643   -1.210908    1.765474 C.3       1 <1>        -0.001801 
     16 C           1.628961   -0.868903    1.721586 C.3       1 <1>        -0.008078 
     17 C           2.301081   -1.696418    0.590219 C.3       1 <1>        -0.022052 
     18 C           1.537596   -1.641666   -0.738490 C.ar      1 <1>        -0.040653 
     19 C           0.133946   -1.164784   -0.799018 C.ar      1 <1>        -0.033851 
     20 C          -0.613363   -0.683710    3.037554 C.3       1 <1>         0.048209 
     21 C           2.160354   -2.039779   -1.882493 C.ar      1 <1>        -0.025690 
     22 C           1.477300   -2.007995   -3.196568 C.ar      1 <1>         0.105677 
     23 C           0.146094   -1.552865   -3.255947 C.ar      1 <1>         0.102730 
     24 C          -0.517788   -1.123863   -1.997675 C.ar      1 <1>        -0.025368 
     25 C           2.368606   -1.123659    3.065948 C.3       1 <1>         0.047671 
     26 C           1.655601   -2.452311   -5.649957 C.3       1 <1>         0.043136 
     27 H          -2.688767    0.873218    1.413386 H         1 <1>         0.064703 
     28 H           1.186969    1.231645   -0.651180 H         1 <1>         0.062128 
     29 H           0.934494    3.696208   -0.695323 H         1 <1>         0.064412 
     30 H          -1.918996    5.423057    0.772238 H         1 <1>         0.217422 
     31 H          -1.603530   -1.149833    0.438463 H         1 <1>         0.040079 
     32 H          -0.632498   -1.177565    4.991956 H         1 <1>         0.209408 
     33 H           2.441061   -0.206059    4.858815 H         1 <1>         0.209407 
     34 H          -1.435217   -1.160990   -4.394027 H         1 <1>         0.217422 
     35 H          -5.169208    3.959328    1.141338 H         1 <1>         0.052871 
     36 H          -4.161662    3.934210   -0.336506 H         1 <1>         0.052871 
     37 H          -4.627002    2.395774    0.465642 H         1 <1>         0.052871 
     38 H           0.010969   -2.310270    1.790230 H         1 <1>         0.033537 
     39 H           1.754267    0.202836    1.504517 H         1 <1>         0.032965 
     40 H           3.328934   -1.330932    0.431656 H         1 <1>         0.031676 
     41 H           2.351861   -2.756256    0.885965 H         1 <1>         0.031676 
     42 H          -1.704208   -0.786833    2.916039 H         1 <1>         0.056011 
     43 H          -0.371177    0.381718    3.189270 H         1 <1>         0.056011 
     44 H           3.185077   -2.393740   -1.848535 H         1 <1>         0.064692 
     45 H          -1.541889   -0.767704   -2.033116 H         1 <1>         0.064703 
     46 H           3.459603   -1.093006    2.902117 H         1 <1>         0.055992 
     47 H           2.105845   -2.123001    3.452088 H         1 <1>         0.055992 
     48 H           2.436951   -2.830667   -6.325012 H         1 <1>         0.052871 
     49 H           0.789057   -3.127743   -5.715445 H         1 <1>         0.052871 
     50 H           1.380430   -1.438239   -5.977612 H         1 <1>         0.052871 
@<TRIPOS>BOND
     1    2    1 1    
     2    1    6 2    
     3    1    9 1    
     4    3    2 2    
     5    2   27 1    
     6    3    4 1    
     7    8    3 1    
     8    4    5 2    
     9    4   28 1    
    10    5    6 1    
    11    5   29 1    
    12    6    7 1    
    13    7   30 1    
    14    8   15 1    
    15   19    8 1    
    16    8   31 1    
    17    9   14 1    
    18   20   10 1    
    19   10   32 1    
    20   25   11 1    
    21   11   33 1    
    22   23   12 1    
    23   12   34 1    
    24   22   13 1    
    25   13   26 1    
    26   14   35 1    
    27   14   36 1    
    28   14   37 1    
    29   16   15 1    
    30   15   20 1    
    31   15   38 1    
    32   17   16 1    
    33   16   25 1    
    34   16   39 1    
    35   18   17 1    
    36   17   40 1    
    37   17   41 1    
    38   18   19 1    
    39   21   18 2    
    40   19   24 2    
    41   20   42 1    
    42   20   43 1    
    43   22   21 1    
    44   21   44 1    
    45   22   23 2    
    46   23   24 1    
    47   24   45 1    
    48   25   46 1    
    49   25   47 1    
    50   26   48 1    
    51   26   49 1    
    52   26   50 1    
@<TRIPOS>SUBSTRUCTURE
     1 ****        1 TEMP              0 ****  ****    0 ROOT 
@<TRIPOS>NORMAL
@<TRIPOS>FF_PBC
FORCE_FIELD_SETUP_FEATURE Force Field Setup information
v1.0  0 0.000000 0.000000 0.000000 0.000000 0.000000 0.000000 NONE 0 0 0 0 1 0 0 0 0 0 0 0 0
