@<TRIPOS>MOLECULE
MOL000475
   23    23     1     1     0
SMALL
GASTEIGER


@<TRIPOS>ATOM
      1 C          -1.670739    1.541290    0.004256 C.ar      1 <1>         0.075849 
      2 C          -0.359769    2.229327   -0.005632 C.ar      1 <1>        -0.031135 
      3 C           0.836861    1.499619    0.045417 C.ar      1 <1>        -0.052164 
      4 C           0.819338    0.017192    0.111511 C.ar      1 <1>        -0.025176 
      5 C          -0.433015   -0.644613    0.132124 C.ar      1 <1>        -0.052164 
      6 C          -1.698899    0.125919    0.071364 C.ar      1 <1>        -0.031135 
      7 C           2.148419   -0.710577    0.161297 C.2       1 <1>        -0.058780 
      8 C           2.325022   -1.998623   -0.167345 C.2       1 <1>        -0.086551 
      9 C           3.666209   -2.688918   -0.094129 C.3       1 <1>        -0.046509 
     10 O          -2.836826    2.317100   -0.053269 O.3       1 <1>        -0.347912 
     11 C          -4.144981    1.722867   -0.048270 C.3       1 <1>         0.043026 
     12 H          -0.334763    3.312678   -0.053658 H         1 <1>         0.064345 
     13 H           1.784153    2.028991    0.035177 H         1 <1>         0.062423 
     14 H          -0.494049   -1.723658    0.198930 H         1 <1>         0.062423 
     15 H          -2.632393   -0.422307    0.080358 H         1 <1>         0.064345 
     16 H           3.010672   -0.126047    0.482475 H         1 <1>         0.062024 
     17 H           1.497655   -2.614849   -0.515529 H         1 <1>         0.056945 
     18 H           4.467540   -2.026844    0.267703 H         1 <1>         0.027180 
     19 H           3.594892   -3.550313    0.587171 H         1 <1>         0.027180 
     20 H           3.942622   -3.052576   -1.095391 H         1 <1>         0.027180 
     21 H          -4.883216    2.536684   -0.098302 H         1 <1>         0.052869 
     22 H          -4.286695    1.072455   -0.924982 H         1 <1>         0.052869 
     23 H          -4.318035    1.155305    0.878926 H         1 <1>         0.052869 
@<TRIPOS>BOND
     1    1    2 1    
     2    1    6 2    
     3    1   10 1    
     4    2    3 2    
     5    2   12 1    
     6    3    4 1    
     7    3   13 1    
     8    4    5 2    
     9    4    7 1    
    10    5    6 1    
    11    5   14 1    
    12    6   15 1    
    13    7    8 2    
    14    7   16 1    
    15    8    9 1    
    16    8   17 1    
    17    9   18 1    
    18    9   19 1    
    19    9   20 1    
    20   10   11 1    
    21   11   21 1    
    22   11   22 1    
    23   11   23 1    
@<TRIPOS>SUBSTRUCTURE
     1 ****        1 TEMP              0 ****  ****    0 ROOT 
@<TRIPOS>NORMAL
@<TRIPOS>FF_PBC
FORCE_FIELD_SETUP_FEATURE Force Field Setup information
v1.0  0 0.000000 0.000000 0.000000 0.000000 0.000000 0.000000 NONE 0 0 0 0 1 0 0 0 0 0 0 0 0
