@<TRIPOS>MOLECULE
MOL007405
   41    43     1     1     0
SMALL
GASTEIGER


@<TRIPOS>ATOM
      1 C           1.391179   -0.867060   -0.002129 C.2       1 <1>         0.093945 
      2 C           1.423646   -2.196954   -0.167389 C.2       1 <1>         0.016921 
      3 C           0.183531   -2.977491   -0.224540 C.2       1 <1>         0.193594 
      4 C          -1.115242   -2.221771   -0.106396 C.ar      1 <1>         0.084491 
      5 C          -2.437148   -2.888759   -0.152259 C.ar      1 <1>         0.118472 
      6 C          -3.635618   -2.119840   -0.037652 C.ar      1 <1>         0.136266 
      7 C          -3.547761   -0.639660    0.127424 C.ar      1 <1>         0.110695 
      8 C          -2.250907   -0.031116    0.169211 C.ar      1 <1>         0.002263 
      9 C          -1.021493   -0.845827    0.050210 C.ar      1 <1>         0.098980 
     10 O           0.223760   -0.210080    0.098012 O.3       1 <1>        -0.307708 
     11 O           0.223908   -4.188790   -0.363481 O.2       1 <1>        -0.287016 
     12 O          -4.715004    0.130748    0.238206 O.3       1 <1>        -0.345170 
     13 C          -4.690719    1.561866    0.364224 C.3       1 <1>         0.043138 
     14 O          -4.857349   -2.812194   -0.087308 O.3       1 <1>        -0.342940 
     15 C          -6.127220   -2.151332    0.023955 C.3       1 <1>         0.043243 
     16 C           2.649467   -0.024680    0.072613 C.ar      1 <1>         0.008192 
     17 C           2.549786    1.412006   -0.283517 C.ar      1 <1>        -0.019523 
     18 C           3.661486    2.274062   -0.247207 C.ar      1 <1>         0.106040 
     19 C           4.990794    1.734170    0.159767 C.ar      1 <1>         0.102473 
     20 C           5.095268    0.353222    0.509725 C.ar      1 <1>        -0.028762 
     21 C           3.910455   -0.535317    0.472823 C.ar      1 <1>        -0.049519 
     22 O           3.458863    3.617217   -0.601360 O.3       1 <1>        -0.345330 
     23 C           4.518519    4.585477   -0.595602 C.3       1 <1>         0.043136 
     24 O           6.120921    2.559024    0.200335 O.3       1 <1>        -0.357268 
     25 O          -2.506658   -4.275061   -0.307870 O.3       1 <1>        -0.356589 
     26 H           2.348893   -2.758304   -0.274549 H         1 <1>         0.068219 
     27 H          -2.127538    1.037149    0.287993 H         1 <1>         0.067039 
     28 H          -5.733101    1.908875    0.419137 H         1 <1>         0.052871 
     29 H          -4.175316    1.871046    1.286479 H         1 <1>         0.052871 
     30 H          -4.216539    2.028862   -0.512720 H         1 <1>         0.052871 
     31 H          -6.909414   -2.921584   -0.041892 H         1 <1>         0.052872 
     32 H          -6.277466   -1.438557   -0.801167 H         1 <1>         0.052872 
     33 H          -6.226570   -1.643415    0.995384 H         1 <1>         0.052872 
     34 H           1.592082    1.822516   -0.584200 H         1 <1>         0.065082 
     35 H           6.050723   -0.064352    0.809201 H         1 <1>         0.064422 
     36 H           4.033502   -1.571442    0.763941 H         1 <1>         0.062505 
     37 H           4.089539    5.549322   -0.906100 H         1 <1>         0.052871 
     38 H           5.307408    4.313161   -1.313054 H         1 <1>         0.052871 
     39 H           4.939705    4.705637    0.414095 H         1 <1>         0.052871 
     40 H           6.921045    2.124802    0.473353 H         1 <1>         0.217422 
     41 H          -3.407252   -4.585354   -0.322626 H         1 <1>         0.217446 
@<TRIPOS>BOND
     1    1    2 2    
     2    1   10 1    
     3    1   16 1    
     4    2    3 1    
     5    2   26 1    
     6    3    4 1    
     7    3   11 2    
     8    4    5 1    
     9    4    9 2    
    10    5    6 2    
    11    5   25 1    
    12    6    7 1    
    13    6   14 1    
    14    7    8 2    
    15    7   12 1    
    16    8    9 1    
    17    8   27 1    
    18    9   10 1    
    19   12   13 1    
    20   13   28 1    
    21   13   29 1    
    22   13   30 1    
    23   14   15 1    
    24   15   31 1    
    25   15   32 1    
    26   15   33 1    
    27   16   17 1    
    28   16   21 2    
    29   17   18 2    
    30   17   34 1    
    31   18   19 1    
    32   18   22 1    
    33   19   20 2    
    34   19   24 1    
    35   20   21 1    
    36   20   35 1    
    37   21   36 1    
    38   22   23 1    
    39   23   37 1    
    40   23   38 1    
    41   23   39 1    
    42   24   40 1    
    43   25   41 1    
@<TRIPOS>SUBSTRUCTURE
     1 ****        1 TEMP              0 ****  ****    0 ROOT 
@<TRIPOS>NORMAL
@<TRIPOS>FF_PBC
FORCE_FIELD_SETUP_FEATURE Force Field Setup information
v1.0  0 0.000000 0.000000 0.000000 0.000000 0.000000 0.000000 NONE 0 0 0 0 1 0 0 0 0 0 0 0 0
