@<TRIPOS>MOLECULE
MOL000239
   37    39     1     1     0
SMALL
GASTEIGER


@<TRIPOS>ATOM
      1 C           0.896004   -0.288297   -0.048176 C.2       1 <1>         0.123852 
      2 C           0.995095   -1.628602    0.019886 C.2       1 <1>         0.154519 
      3 C          -0.206806   -2.481368    0.037813 C.2       1 <1>         0.223296 
      4 C          -1.551364   -1.802487    0.013609 C.ar      1 <1>         0.084561 
      5 C          -1.514374   -0.328359   -0.030779 C.ar      1 <1>         0.099008 
      6 O          -0.291914    0.343596   -0.055210 O.3       1 <1>        -0.305123 
      7 C          -2.707852    0.405230   -0.050816 C.ar      1 <1>        -0.000281 
      8 C          -4.018167   -0.296689   -0.029436 C.ar      1 <1>         0.080751 
      9 C          -4.045907   -1.703065    0.009729 C.ar      1 <1>        -0.001054 
     10 C          -2.786846   -2.490078    0.032563 C.ar      1 <1>         0.088409 
     11 O          -0.108952   -3.697543    0.077597 O.2       1 <1>        -0.284262 
     12 O          -5.234417    0.397192   -0.047249 O.3       1 <1>        -0.347746 
     13 C          -5.275188    1.833112   -0.072345 C.3       1 <1>         0.043029 
     14 O           2.199822   -2.216572    0.077067 O.3       1 <1>        -0.342026 
     15 C           2.807122   -2.120024    1.380817 C.3       1 <1>         0.043278 
     16 C           2.114041    0.609154   -0.121114 C.ar      1 <1>         0.008304 
     17 C           2.071799    1.912187    0.586432 C.ar      1 <1>        -0.049598 
     18 C           3.179912    2.779857    0.556438 C.ar      1 <1>        -0.031302 
     19 C           4.407967    2.407741   -0.182346 C.ar      1 <1>         0.072619 
     20 C           4.455436    1.164186   -0.872461 C.ar      1 <1>        -0.031302 
     21 C           3.285379    0.254303   -0.847906 C.ar      1 <1>        -0.049598 
     22 O           5.494127    3.286595   -0.185737 O.3       1 <1>        -0.359832 
     23 O          -2.810017   -3.885244    0.073298 O.3       1 <1>        -0.358954 
     24 H          -2.642851    1.485180   -0.082965 H         1 <1>         0.066955 
     25 H          -5.005754   -2.206921    0.023808 H         1 <1>         0.066931 
     26 H          -6.331764    2.138854   -0.076890 H         1 <1>         0.052870 
     27 H          -4.797276    2.226752   -0.982507 H         1 <1>         0.052870 
     28 H          -4.795663    2.257704    0.822979 H         1 <1>         0.052870 
     29 H           3.781075   -2.628744    1.329992 H         1 <1>         0.052873 
     30 H           2.978632   -1.083244    1.707874 H         1 <1>         0.052873 
     31 H           2.187517   -2.635158    2.132284 H         1 <1>         0.052873 
     32 H           1.179071    2.199214    1.132787 H         1 <1>         0.062504 
     33 H           3.142543    3.731202    1.076143 H         1 <1>         0.064339 
     34 H           5.344027    0.870759   -1.420822 H         1 <1>         0.064339 
     35 H           3.336781   -0.679036   -1.397029 H         1 <1>         0.062504 
     36 H           6.241182    2.981265   -0.687675 H         1 <1>         0.217313 
     37 H          -3.684021   -4.258349    0.073368 H         1 <1>         0.217342 
@<TRIPOS>BOND
     1    1    2 2    
     2    1    6 1    
     3    1   16 1    
     4    2    3 1    
     5    2   14 1    
     6    3    4 1    
     7    3   11 2    
     8    4    5 1    
     9    4   10 2    
    10    5    6 1    
    11    5    7 2    
    12    7    8 1    
    13    7   24 1    
    14    8    9 2    
    15    8   12 1    
    16    9   10 1    
    17    9   25 1    
    18   10   23 1    
    19   12   13 1    
    20   13   26 1    
    21   13   27 1    
    22   13   28 1    
    23   14   15 1    
    24   15   29 1    
    25   15   30 1    
    26   15   31 1    
    27   16   17 1    
    28   16   21 2    
    29   17   18 2    
    30   17   32 1    
    31   18   19 1    
    32   18   33 1    
    33   19   20 2    
    34   19   22 1    
    35   20   21 1    
    36   20   34 1    
    37   21   35 1    
    38   22   36 1    
    39   23   37 1    
@<TRIPOS>SUBSTRUCTURE
     1 ****        1 TEMP              0 ****  ****    0 ROOT 
@<TRIPOS>NORMAL
@<TRIPOS>FF_PBC
FORCE_FIELD_SETUP_FEATURE Force Field Setup information
v1.0  0 0.000000 0.000000 0.000000 0.000000 0.000000 0.000000 NONE 0 0 0 0 1 0 0 0 0 0 0 0 0
