@<TRIPOS>MOLECULE
MOL006594
   27    27     1     1     0
SMALL
GASTEIGER


@<TRIPOS>ATOM
      1 C          -2.158406   -2.139721   -1.288684 C.ar      1 <1>        -0.061420 
      2 C          -1.429884   -3.319025   -1.011425 C.ar      1 <1>        -0.061740 
      3 C           0.015735   -3.237605   -0.696181 C.ar      1 <1>        -0.061420 
      4 C           0.667275   -1.981973   -0.671397 C.ar      1 <1>        -0.056075 
      5 C          -0.091381   -0.738887   -0.960230 C.ar      1 <1>        -0.017677 
      6 C          -1.476771   -0.823996   -1.263579 C.ar      1 <1>        -0.056075 
      7 C           0.606366    0.629925   -0.933441 C.3       1 <1>         0.095172 
      8 C           0.238938    1.412371    0.360468 C.3       1 <1>         0.034690 
      9 C           0.912357    2.812918    0.331669 C.3       1 <1>        -0.046978 
     10 O           0.201705    1.384702   -2.091367 O.3       1 <1>        -0.385640 
     11 N           0.660751    0.635309    1.555912 N.3       1 <1>        -0.313830 
     12 C           0.539030    1.294617    2.876241 C.3       1 <1>        -0.015454 
     13 H          -3.217395   -2.195622   -1.519880 H         1 <1>         0.061767 
     14 H          -1.926638   -4.283878   -1.028631 H         1 <1>         0.061758 
     15 H           0.573335   -4.144205   -0.483878 H         1 <1>         0.061767 
     16 H           1.725733   -1.932416   -0.438138 H         1 <1>         0.062111 
     17 H          -2.043405    0.076048   -1.478425 H         1 <1>         0.062111 
     18 H           1.701265    0.494060   -0.945617 H         1 <1>         0.065903 
     19 H          -0.855177    1.558210    0.375056 H         1 <1>         0.048622 
     20 H           0.554167    3.443240    1.159214 H         1 <1>         0.024558 
     21 H           0.681711    3.341572   -0.605777 H         1 <1>         0.024558 
     22 H           2.004366    2.703086    0.413777 H         1 <1>         0.024558 
     23 H           0.420020    0.947242   -2.908590 H         1 <1>         0.210299 
     24 H           0.149822   -0.320842    1.580332 H         1 <1>         0.121981 
     25 H           0.689890    0.563149    3.686685 H         1 <1>         0.038817 
     26 H           1.312004    2.069225    2.987527 H         1 <1>         0.038817 
     27 H          -0.455411    1.752196    2.998963 H         1 <1>         0.038817 
@<TRIPOS>BOND
     1    1    2 2    
     2    1    6 1    
     3    1   13 1    
     4    2    3 1    
     5    2   14 1    
     6    3    4 2    
     7    3   15 1    
     8    4    5 1    
     9    4   16 1    
    10    5    6 2    
    11    5    7 1    
    12    6   17 1    
    13    7    8 1    
    14    7   10 1    
    15    7   18 1    
    16    8    9 1    
    17    8   11 1    
    18    8   19 1    
    19    9   20 1    
    20    9   21 1    
    21    9   22 1    
    22   10   23 1    
    23   11   12 1    
    24   11   24 1    
    25   12   25 1    
    26   12   26 1    
    27   12   27 1    
@<TRIPOS>SUBSTRUCTURE
     1 ****        1 TEMP              0 ****  ****    0 ROOT 
@<TRIPOS>NORMAL
@<TRIPOS>FF_PBC
FORCE_FIELD_SETUP_FEATURE Force Field Setup information
v1.0  0 0.000000 0.000000 0.000000 0.000000 0.000000 0.000000 NONE 0 0 0 0 1 0 0 0 0 0 0 0 0
