@<TRIPOS>MOLECULE
MOL001666
   52    54     1     1     0
SMALL
GASTEIGER


@<TRIPOS>ATOM
      1 C           0.454601    0.645988    3.834571 C.3       1 <1>         0.111896 
      2 C          -0.627698    1.749908    3.680205 C.3       1 <1>         0.114063 
      3 C          -1.564237    1.428888    2.487325 C.3       1 <1>         0.134212 
      4 C          -0.712565    1.231237    1.213091 C.3       1 <1>         0.190802 
      5 O           0.239615    0.178126    1.425239 O.3       1 <1>        -0.340431 
      6 C           1.188869    0.443322    2.474092 C.3       1 <1>         0.113007 
      7 O          -1.415106    1.843832    4.885455 O.3       1 <1>        -0.386401 
      8 C           2.158930   -0.769238    2.467053 C.3       1 <1>         0.073015 
      9 O           2.763367   -0.877409    1.160511 O.3       1 <1>        -0.392366 
     10 O           1.365997    1.055021    4.875369 O.3       1 <1>        -0.386488 
     11 O          -2.496070    2.514749    2.299128 O.3       1 <1>        -0.384103 
     12 H          -0.237331    2.201245    0.980382 H         1 <1>         0.093840 
     13 O          -1.602733    0.781272    0.172358 O.3       1 <1>        -0.319113 
     14 C          -1.218442    1.173713   -1.162935 C.3       1 <1>         0.174414 
     15 O          -2.195230    0.593946   -2.038160 O.3       1 <1>        -0.321653 
     16 C          -2.111412   -0.735953   -2.196408 C.2       1 <1>         0.052366 
     17 C          -0.999654   -1.446288   -1.943278 C.2       1 <1>         0.053244 
     18 C           0.307704   -0.807562   -1.511531 C.3       1 <1>         0.032469 
     19 C           0.196132    0.731506   -1.594991 C.3       1 <1>         0.043562 
     20 C           0.547055    0.924188   -3.046276 C.2       1 <1>        -0.037429 
     21 C           1.246988   -0.098143   -3.539314 C.2       1 <1>        -0.053458 
     22 C           1.466716   -1.145698   -2.491021 C.3       1 <1>         0.081411 
     23 C           0.122652    2.173345   -3.778552 C.3       1 <1>         0.065815 
     24 O           0.751068    2.200230   -5.071777 O.3       1 <1>        -0.390723 
     25 O           1.410209   -2.461796   -3.061284 O.3       1 <1>        -0.387133 
     26 H           0.562832   -1.094833   -0.490024 H         1 <1>         0.038701 
     27 H           0.978790    1.220624   -0.993547 H         1 <1>         0.040256 
     28 C          -1.125524   -2.906900   -2.168961 C.2       1 <1>         0.291816 
     29 O          -1.450015   -3.289862   -3.282823 O.2       1 <1>        -0.259506 
     30 O          -0.948464   -3.848300   -1.219231 O.3       1 <1>        -0.314939 
     31 C          -0.575433   -3.428173    0.106880 C.3       1 <1>         0.046187 
     32 H          -0.072387   -0.282148    4.121781 H         1 <1>         0.064673 
     33 H          -0.116195    2.711171    3.501882 H         1 <1>         0.064758 
     34 H          -2.103778    0.490537    2.709745 H         1 <1>         0.067096 
     35 H           1.783425    1.341806    2.238509 H         1 <1>         0.064668 
     36 H          -2.081943    2.520549    4.811733 H         1 <1>         0.210005 
     37 H           1.587950   -1.686516    2.694272 H         1 <1>         0.058370 
     38 H           2.953735   -0.641019    3.219069 H         1 <1>         0.058370 
     39 H           3.358441   -1.617835    1.072539 H         1 <1>         0.209508 
     40 H           1.995954    0.391137    5.138414 H         1 <1>         0.210004 
     41 H          -3.069755    2.356260    1.554032 H         1 <1>         0.210110 
     42 H          -1.324975    2.268776   -1.258191 H         1 <1>         0.092074 
     43 H          -3.017042   -1.217599   -2.566811 H         1 <1>         0.089059 
     44 H           1.623254   -0.174811   -4.557797 H         1 <1>         0.059804 
     45 H           2.449387   -0.954057   -2.024164 H         1 <1>         0.064386 
     46 H          -0.973354    2.164984   -3.889796 H         1 <1>         0.060400 
     47 H           0.426967    3.055613   -3.190717 H         1 <1>         0.060400 
     48 H           0.505037    2.958298   -5.594049 H         1 <1>         0.209834 
     49 H           1.553058   -3.144604   -2.414096 H         1 <1>         0.210232 
     50 H          -0.765679   -4.285861    0.767842 H         1 <1>         0.052972 
     51 H           0.501534   -3.224238    0.171969 H         1 <1>         0.052972 
     52 H          -1.162617   -2.579482    0.490814 H         1 <1>         0.052972 
@<TRIPOS>BOND
     1    1    2 1    
     2    1    6 1    
     3    1   10 1    
     4    1   32 1    
     5    2    3 1    
     6    2    7 1    
     7    2   33 1    
     8    3    4 1    
     9    3   11 1    
    10    3   34 1    
    11    4    5 1    
    12    4   12 1    
    13    4   13 1    
    14    5    6 1    
    15    6    8 1    
    16    6   35 1    
    17    7   36 1    
    18    8    9 1    
    19    8   37 1    
    20    8   38 1    
    21    9   39 1    
    22   10   40 1    
    23   11   41 1    
    24   13   14 1    
    25   14   15 1    
    26   14   19 1    
    27   14   42 1    
    28   15   16 1    
    29   16   17 2    
    30   16   43 1    
    31   17   18 1    
    32   17   28 1    
    33   18   19 1    
    34   18   22 1    
    35   18   26 1    
    36   19   20 1    
    37   19   27 1    
    38   20   21 2    
    39   20   23 1    
    40   21   22 1    
    41   21   44 1    
    42   22   25 1    
    43   22   45 1    
    44   23   24 1    
    45   23   46 1    
    46   23   47 1    
    47   24   48 1    
    48   25   49 1    
    49   28   29 2    
    50   28   30 1    
    51   30   31 1    
    52   31   50 1    
    53   31   51 1    
    54   31   52 1    
@<TRIPOS>SUBSTRUCTURE
     1 ****        1 TEMP              0 ****  ****    0 ROOT 
@<TRIPOS>NORMAL
@<TRIPOS>FF_PBC
FORCE_FIELD_SETUP_FEATURE Force Field Setup information
v1.0  0 0.000000 0.000000 0.000000 0.000000 0.000000 0.000000 NONE 0 0 0 0 1 0 0 0 0 0 0 0 0
