@<TRIPOS>MOLECULE
MOL002776
   50    53     1     1     0
SMALL
GASTEIGER


@<TRIPOS>ATOM
      1 C           0.788963    1.497666   -0.031107 C.ar      1 <1>         0.098982 
      2 C           0.961034    2.063151    1.321035 C.ar      1 <1>         0.084484 
      3 O           1.795964    1.635976   -0.988033 O.3       1 <1>        -0.307709 
      4 C          -0.384964    0.815173   -0.362201 C.ar      1 <1>         0.002379 
      5 C          -0.040859    1.910060    2.293782 C.ar      1 <1>         0.118241 
      6 C           2.260558    2.788462    1.552182 C.2       1 <1>         0.193594 
      7 C           2.993914    2.182081   -0.720795 C.2       1 <1>         0.093863 
      8 C          -1.446958    0.606927    0.655519 C.ar      1 <1>         0.114113 
      9 C          -1.270011    1.146589    1.959857 C.ar      1 <1>         0.133671 
     10 O           0.123528    2.463672    3.565819 O.3       1 <1>        -0.356594 
     11 C           3.254575    2.737948    0.472546 C.2       1 <1>         0.016920 
     12 O           2.499753    3.386677    2.589072 O.2       1 <1>        -0.287016 
     13 C           4.019869    2.109797   -1.836051 C.ar      1 <1>         0.005594 
     14 O          -2.615521   -0.110453    0.366772 O.3       1 <1>        -0.309804 
     15 O          -2.239472    0.964533    2.950017 O.3       1 <1>        -0.355372 
     16 C           3.808166    1.098382   -2.904002 C.ar      1 <1>        -0.052112 
     17 C           5.168444    2.947061   -1.917829 C.ar      1 <1>        -0.052112 
     18 C          -2.644515   -1.152434   -0.629613 C.3       1 <1>         0.194267 
     19 C           4.728732    0.953409   -3.954145 C.ar      1 <1>        -0.061122 
     20 C           6.138797    2.781366   -3.027243 C.ar      1 <1>        -0.061122 
     21 O          -3.972682   -1.702638   -0.651838 O.3       1 <1>        -0.332332 
     22 C          -1.601263   -2.280788   -0.398861 C.3       1 <1>         0.134537 
     23 C           5.930176    1.815457   -4.014183 C.ar      1 <1>        -0.061721 
     24 C          -4.350708   -2.324945    0.593856 C.3       1 <1>         0.174389 
     25 C          -1.906566   -2.977941    0.949269 C.3       1 <1>         0.114509 
     26 O          -1.627413   -3.191170   -1.518861 O.3       1 <1>        -0.384091 
     27 C          -3.378565   -3.477516    0.962960 C.3       1 <1>         0.119030 
     28 C          -4.586718   -1.325958    1.702188 C.2       1 <1>         0.291467 
     29 O          -1.613302   -2.039348    2.002117 O.3       1 <1>        -0.386388 
     30 O          -3.573143   -4.549997    0.016014 O.3       1 <1>        -0.386033 
     31 O          -5.525293   -0.406144    1.458539 O.3       1 <1>        -0.329249 
     32 O          -3.973847   -1.353413    2.758815 O.2       1 <1>        -0.262180 
     33 H          -0.490248    0.442586   -1.372812 H         1 <1>         0.067041 
     34 H          -0.633555    2.305074    4.120883 H         1 <1>         0.217446 
     35 H           4.219244    3.173948    0.719934 H         1 <1>         0.068219 
     36 H          -2.807973    0.225832    2.753054 H         1 <1>         0.217502 
     37 H           2.932314    0.457212   -2.878765 H         1 <1>         0.062424 
     38 H           5.362218    3.717426   -1.182200 H         1 <1>         0.062424 
     39 H          -2.500595   -0.726364   -1.633399 H         1 <1>         0.094174 
     40 H           4.559772    0.209484   -4.724795 H         1 <1>         0.061777 
     41 H           7.019252    3.414631   -3.070507 H         1 <1>         0.061777 
     42 H          -0.593156   -1.842542   -0.335716 H         1 <1>         0.067108 
     43 H           6.644095    1.693514   -4.823805 H         1 <1>         0.061759 
     44 H          -5.337592   -2.779234    0.416349 H         1 <1>         0.072940 
     45 H          -1.226233   -3.838420    1.067357 H         1 <1>         0.064771 
     46 H          -0.998248   -3.902414   -1.451247 H         1 <1>         0.210111 
     47 H          -3.635110   -3.859152    1.966973 H         1 <1>         0.065129 
     48 H          -1.789254   -2.371643    2.877355 H         1 <1>         0.210005 
     49 H          -3.037296   -5.319657    0.182091 H         1 <1>         0.210020 
     50 H          -5.627961    0.200766    2.183228 H         1 <1>         0.220293 
@<TRIPOS>BOND
     1    1    2 1    
     2    1    3 1    
     3    1    4 2    
     4    2    5 2    
     5    2    6 1    
     6    3    7 1    
     7    4    8 1    
     8    4   33 1    
     9    5    9 1    
    10    5   10 1    
    11    6   11 1    
    12    6   12 2    
    13    7   11 2    
    14    7   13 1    
    15    8    9 2    
    16    8   14 1    
    17    9   15 1    
    18   10   34 1    
    19   11   35 1    
    20   13   16 1    
    21   13   17 2    
    22   14   18 1    
    23   15   36 1    
    24   16   19 2    
    25   16   37 1    
    26   17   20 1    
    27   17   38 1    
    28   18   21 1    
    29   18   22 1    
    30   18   39 1    
    31   19   23 1    
    32   19   40 1    
    33   20   23 2    
    34   20   41 1    
    35   21   24 1    
    36   22   25 1    
    37   22   26 1    
    38   22   42 1    
    39   23   43 1    
    40   24   27 1    
    41   24   28 1    
    42   24   44 1    
    43   25   27 1    
    44   25   29 1    
    45   25   45 1    
    46   26   46 1    
    47   27   30 1    
    48   27   47 1    
    49   28   31 1    
    50   28   32 2    
    51   29   48 1    
    52   30   49 1    
    53   31   50 1    
@<TRIPOS>SUBSTRUCTURE
     1 ****        1 TEMP              0 ****  ****    0 ROOT 
@<TRIPOS>NORMAL
@<TRIPOS>FF_PBC
FORCE_FIELD_SETUP_FEATURE Force Field Setup information
v1.0  0 0.000000 0.000000 0.000000 0.000000 0.000000 0.000000 NONE 0 0 0 0 1 0 0 0 0 0 0 0 0
