@<TRIPOS>MOLECULE
MOL002169
   18    19     1     1     0
SMALL
GASTEIGER


@<TRIPOS>ATOM
      1 C          -0.318906    0.594268    0.246544 C.2       1 <1>        -0.065515 
      2 C           0.905973    0.138426    0.430147 C.2       1 <1>        -0.051450 
      3 C           0.822191   -1.203930   -0.223705 C.2       1 <1>        -0.062524 
      4 C          -0.348016   -1.513234   -0.833411 C.2       1 <1>        -0.080069 
      5 C          -1.437412   -0.410751   -0.724965 C.3       1 <1>        -0.015223 
      6 C          -1.532908   -0.030574    0.797329 C.3       1 <1>        -0.024608 
      7 C          -0.799479    0.986091   -1.086264 C.3       1 <1>        -0.024608 
      8 C           2.094950    0.823145    1.040739 C.3       1 <1>        -0.039758 
      9 H           1.670334   -1.887864   -0.213241 H         1 <1>         0.061717 
     10 H          -0.518773   -2.456693   -1.351559 H         1 <1>         0.057508 
     11 H          -2.391507   -0.649439   -1.222028 H         1 <1>         0.034912 
     12 H          -2.332750    0.676327    1.069729 H         1 <1>         0.031591 
     13 H          -1.411833   -0.860396    1.511905 H         1 <1>         0.031591 
     14 H          -1.489620    1.844610   -1.098865 H         1 <1>         0.031591 
     15 H          -0.083705    0.976413   -1.923631 H         1 <1>         0.031591 
     16 H           1.987402    1.915356    0.961095 H         1 <1>         0.027752 
     17 H           3.012387    0.514260    0.518277 H         1 <1>         0.027752 
     18 H           2.171773    0.543983    2.101806 H         1 <1>         0.027752 
@<TRIPOS>BOND
     1    1    2 2    
     2    1    6 1    
     3    1    7 1    
     4    2    3 1    
     5    2    8 1    
     6    3    4 2    
     7    3    9 1    
     8    4    5 1    
     9    4   10 1    
    10    5    6 1    
    11    5    7 1    
    12    5   11 1    
    13    6   12 1    
    14    6   13 1    
    15    7   14 1    
    16    7   15 1    
    17    8   16 1    
    18    8   17 1    
    19    8   18 1    
@<TRIPOS>SUBSTRUCTURE
     1 ****        1 TEMP              0 ****  ****    0 ROOT 
@<TRIPOS>NORMAL
@<TRIPOS>FF_PBC
FORCE_FIELD_SETUP_FEATURE Force Field Setup information
v1.0  0 0.000000 0.000000 0.000000 0.000000 0.000000 0.000000 NONE 0 0 0 0 1 0 0 0 0 0 0 0 0
