@<TRIPOS>MOLECULE
MOL001912
   41    44     1     1     0
SMALL
GASTEIGER


@<TRIPOS>ATOM
      1 O          -2.150519    2.331971    0.288788 O.3       1 <1>        -0.341976 
      2 O          -0.759235   -0.452419    2.161697 O.3       1 <1>        -0.382497 
      3 O          -0.353544    2.369701    1.733944 O.3       1 <1>        -0.362539 
      4 O           0.418248   -0.352263   -1.905540 O.3       1 <1>        -0.310669 
      5 O          -4.076890    0.048063   -2.151488 O.2       1 <1>        -0.297002 
      6 O           1.854829   -0.668369   -3.534776 O.2       1 <1>        -0.259226 
      7 C          -1.128201    0.280750   -0.188216 C.3       1 <1>         0.064571 
      8 C          -1.595044    0.312238    1.277000 C.3       1 <1>         0.130424 
      9 C          -2.358100   -0.551052   -0.601350 C.3       1 <1>         0.033323 
     10 C          -1.360781    1.708430   -0.736578 C.3       1 <1>         0.079875 
     11 C          -2.899294   -0.406506    0.841784 C.3       1 <1>        -0.007930 
     12 C          -1.673706    1.837156    1.543152 C.3       1 <1>         0.194622 
     13 C          -2.198734    1.529249   -2.017916 C.3       1 <1>         0.033245 
     14 C          -2.999045    0.315899   -1.647154 C.2       1 <1>         0.139759 
     15 C           0.256897   -0.339605   -0.474697 C.3       1 <1>         0.068859 
     16 C          -2.599896    2.244519    2.713864 C.3       1 <1>        -0.007840 
     17 C           1.626564   -0.743686   -2.339424 C.2       1 <1>         0.293828 
     18 C           2.726702   -1.254797   -1.434152 C.ar      1 <1>         0.046475 
     19 C           2.599719   -2.567193   -0.754486 C.ar      1 <1>        -0.048875 
     20 C           3.882661   -0.478580   -1.240800 C.ar      1 <1>        -0.048875 
     21 C           3.622250   -3.020939    0.096460 C.ar      1 <1>        -0.061020 
     22 C           4.961690   -0.959454   -0.345366 C.ar      1 <1>        -0.061020 
     23 C           4.833432   -2.193069    0.308034 C.ar      1 <1>        -0.061719 
     24 H          -1.135827   -0.505093    3.033420 H         1 <1>         0.210420 
     25 H           0.069254    1.995017    2.498768 H         1 <1>         0.212838 
     26 H          -2.127304   -1.580519   -0.918363 H         1 <1>         0.038616 
     27 H          -0.426075    2.272519   -0.893781 H         1 <1>         0.060855 
     28 H          -3.045498   -1.374715    1.345892 H         1 <1>         0.030174 
     29 H          -3.811284    0.207555    0.883854 H         1 <1>         0.030174 
     30 H          -1.565731    1.295423   -2.887715 H         1 <1>         0.036714 
     31 H          -2.823237    2.410972   -2.227414 H         1 <1>         0.036714 
     32 H           1.015851    0.290077    0.018309 H         1 <1>         0.057347 
     33 H           0.288048   -1.351938   -0.045040 H         1 <1>         0.057347 
     34 H          -3.635753    1.924012    2.537216 H         1 <1>         0.028213 
     35 H          -2.586366    3.340384    2.810319 H         1 <1>         0.028213 
     36 H          -2.243986    1.800090    3.654798 H         1 <1>         0.028213 
     37 H           1.719553   -3.180342   -0.918444 H         1 <1>         0.062527 
     38 H           3.985571    0.477335   -1.743974 H         1 <1>         0.062527 
     39 H           3.529304   -3.979186    0.597664 H         1 <1>         0.061778 
     40 H           5.849548   -0.353388   -0.196271 H         1 <1>         0.061778 
     41 H           5.620148   -2.545252    0.967979 H         1 <1>         0.061759 
@<TRIPOS>BOND
     1   10    1 1    
     2   12    1 1    
     3    8    2 1    
     4    2   24 1    
     5   12    3 1    
     6    3   25 1    
     7   15    4 1    
     8    4   17 1    
     9   14    5 2    
    10   17    6 2    
    11    7    8 1    
    12    9    7 1    
    13    7   10 1    
    14    7   15 1    
    15   11    8 1    
    16    8   12 1    
    17    9   11 1    
    18    9   14 1    
    19    9   26 1    
    20   10   13 1    
    21   10   27 1    
    22   11   28 1    
    23   11   29 1    
    24   12   16 1    
    25   13   14 1    
    26   13   30 1    
    27   13   31 1    
    28   15   32 1    
    29   15   33 1    
    30   16   34 1    
    31   16   35 1    
    32   16   36 1    
    33   17   18 1    
    34   18   19 1    
    35   18   20 2    
    36   19   21 2    
    37   19   37 1    
    38   20   22 1    
    39   20   38 1    
    40   21   23 1    
    41   21   39 1    
    42   22   23 2    
    43   22   40 1    
    44   23   41 1    
@<TRIPOS>SUBSTRUCTURE
     1 ****        2 TEMP              0 ****  ****    0 ROOT 
@<TRIPOS>NORMAL
@<TRIPOS>FF_PBC
FORCE_FIELD_SETUP_FEATURE Force Field Setup information
v1.0  0 0.000000 0.000000 0.000000 0.000000 0.000000 0.000000 NONE 0 0 0 0 1 0 0 0 0 0 0 0 0
