@<TRIPOS>MOLECULE
MOL000971
   56    55     1     1     0
SMALL
GASTEIGER


@<TRIPOS>ATOM
      1 C           8.454251    0.060712    0.000257 C.2       1 <1>         0.262151 
      2 C           7.201417   -0.778151   -0.000490 C.3       1 <1>         0.033199 
      3 C           5.895751    0.063203    0.000223 C.3       1 <1>        -0.044055 
      4 C           4.633661   -0.842277   -0.000160 C.3       1 <1>        -0.052596 
      5 C           3.333353    0.007158    0.000225 C.3       1 <1>        -0.053045 
      6 C           2.065856   -0.890878   -0.000062 C.3       1 <1>        -0.053057 
      7 C           0.771059   -0.032899    0.000186 C.3       1 <1>        -0.053057 
      8 C          -0.503533   -0.920847   -0.000060 C.3       1 <1>        -0.053057 
      9 C          -1.790690   -0.051357    0.000138 C.3       1 <1>        -0.053057 
     10 C          -3.073661   -0.926995   -0.000088 C.3       1 <1>        -0.053057 
     11 C          -4.352818   -0.045499    0.000104 C.3       1 <1>        -0.053057 
     12 C          -5.642714   -0.910819   -0.000118 C.3       1 <1>        -0.053057 
     13 C          -6.916594   -0.021710    0.000086 C.3       1 <1>        -0.053065 
     14 C          -8.209942   -0.881707   -0.000125 C.3       1 <1>        -0.053306 
     15 C          -9.481336    0.010479    0.000099 C.3       1 <1>        -0.055911 
     16 C         -10.773331   -0.847504   -0.000111 C.3       1 <1>        -0.065276 
     17 O           9.555889   -0.466802    0.001437 O.2       1 <1>        -0.264976 
     18 O           8.275549    1.390259   -0.000472 O.3       1 <1>        -0.315471 
     19 C           9.501404    2.148056    0.000233 C.3       1 <1>         0.054243 
     20 C           9.131643    3.650282   -0.000437 C.3       1 <1>        -0.040980 
     21 H           7.226315   -1.420976   -0.894190 H         1 <1>         0.036606 
     22 H           7.226253   -1.422444    0.892141 H         1 <1>         0.036606 
     23 H           5.882580    0.708117    0.894665 H         1 <1>         0.027004 
     24 H           5.882334    0.709220   -0.893459 H         1 <1>         0.027004 
     25 H           4.647264   -1.487607   -0.893975 H         1 <1>         0.026540 
     26 H           4.647296   -1.488431    0.893008 H         1 <1>         0.026540 
     27 H           3.321213    0.653007    0.893695 H         1 <1>         0.026529 
     28 H           3.321137    0.653731   -0.892778 H         1 <1>         0.026529 
     29 H           2.075680   -1.536434   -0.893725 H         1 <1>         0.026528 
     30 H           2.075674   -1.537027    0.893130 H         1 <1>         0.026528 
     31 H           0.763722    0.613018    0.893608 H         1 <1>         0.026528 
     32 H           0.763710    0.613573   -0.892879 H         1 <1>         0.026528 
     33 H          -0.498934   -1.566527   -0.893664 H         1 <1>         0.026528 
     34 H          -0.498953   -1.567024    0.893169 H         1 <1>         0.026528 
     35 H          -1.792257    0.594644    0.893563 H         1 <1>         0.026528 
     36 H          -1.792245    0.595128   -0.892949 H         1 <1>         0.026528 
     37 H          -3.075007   -1.572724   -0.893642 H         1 <1>         0.026528 
     38 H          -3.075025   -1.573200    0.893137 H         1 <1>         0.026528 
     39 H          -4.349005    0.600421    0.893542 H         1 <1>         0.026528 
     40 H          -4.348988    0.600888   -0.892978 H         1 <1>         0.026528 
     41 H          -5.648372   -1.556533   -0.893652 H         1 <1>         0.026528 
     42 H          -5.648385   -1.557019    0.893113 H         1 <1>         0.026528 
     43 H          -6.909748    0.624267    0.893554 H         1 <1>         0.026528 
     44 H          -6.909740    0.624731   -0.893002 H         1 <1>         0.026528 
     45 H          -8.218670   -1.527425   -0.893673 H         1 <1>         0.026520 
     46 H          -8.218675   -1.527909    0.893120 H         1 <1>         0.026520 
     47 H          -9.478714    0.656827    0.893723 H         1 <1>         0.026265 
     48 H          -9.478716    0.657288   -0.893160 H         1 <1>         0.026265 
     49 H         -11.661289   -0.195535    0.000062 H         1 <1>         0.022978 
     50 H         -10.809390   -1.487733   -0.895310 H         1 <1>         0.022978 
     51 H         -10.809393   -1.488198    0.894764 H         1 <1>         0.022978 
     52 H          10.099927    1.922629    0.899765 H         1 <1>         0.056303 
     53 H          10.101226    1.922100   -0.898299 H         1 <1>         0.056303 
     54 H          10.040403    4.272646   -0.000001 H         1 <1>         0.025189 
     55 H           8.536424    3.888857   -0.895607 H         1 <1>         0.025189 
     56 H           8.535235    3.889346    0.893812 H         1 <1>         0.025189 
@<TRIPOS>BOND
     1    1    2 1    
     2    1   17 2    
     3    1   18 1    
     4    2    3 1    
     5    2   21 1    
     6    2   22 1    
     7    3    4 1    
     8    3   23 1    
     9    3   24 1    
    10    4    5 1    
    11    4   25 1    
    12    4   26 1    
    13    5    6 1    
    14    5   27 1    
    15    5   28 1    
    16    6    7 1    
    17    6   29 1    
    18    6   30 1    
    19    7    8 1    
    20    7   31 1    
    21    7   32 1    
    22    8    9 1    
    23    8   33 1    
    24    8   34 1    
    25    9   10 1    
    26    9   35 1    
    27    9   36 1    
    28   10   11 1    
    29   10   37 1    
    30   10   38 1    
    31   11   12 1    
    32   11   39 1    
    33   11   40 1    
    34   12   13 1    
    35   12   41 1    
    36   12   42 1    
    37   13   14 1    
    38   13   43 1    
    39   13   44 1    
    40   14   15 1    
    41   14   45 1    
    42   14   46 1    
    43   15   16 1    
    44   15   47 1    
    45   15   48 1    
    46   16   49 1    
    47   16   50 1    
    48   16   51 1    
    49   18   19 1    
    50   19   20 1    
    51   19   52 1    
    52   19   53 1    
    53   20   54 1    
    54   20   55 1    
    55   20   56 1    
@<TRIPOS>SUBSTRUCTURE
     1 ****        1 TEMP              0 ****  ****    0 ROOT 
@<TRIPOS>NORMAL
@<TRIPOS>FF_PBC
FORCE_FIELD_SETUP_FEATURE Force Field Setup information
v1.0  0 0.000000 0.000000 0.000000 0.000000 0.000000 0.000000 NONE 0 0 0 0 1 0 0 0 0 0 0 0 0
