@<TRIPOS>MOLECULE
MOL004618
   44    43     1     1     0
SMALL
GASTEIGER


@<TRIPOS>ATOM
      1 C           0.595066   -1.635300   -0.473162 C.3       1 <1>        -0.043879 
      2 C           1.972812   -0.984720   -0.127600 C.3       1 <1>        -0.050459 
      3 C          -0.489225   -0.563707   -0.803364 C.3       1 <1>        -0.050459 
      4 C           1.978068   -0.085779    1.141479 C.3       1 <1>        -0.052815 
      5 C          -1.778567   -1.159232   -1.436955 C.3       1 <1>        -0.052815 
      6 C           3.395666    0.489371    1.416270 C.3       1 <1>        -0.053057 
      7 C          -2.773346   -0.039143   -1.851128 C.3       1 <1>        -0.053057 
      8 C           0.128303   -2.617897    0.639280 C.3       1 <1>        -0.062415 
      9 C           3.406620    1.398144    2.676371 C.3       1 <1>        -0.053306 
     10 C          -4.064924   -0.630634   -2.479805 C.3       1 <1>        -0.053306 
     11 C           4.824950    1.968887    2.950026 C.3       1 <1>        -0.055911 
     12 C          -5.058777    0.489269   -2.892394 C.3       1 <1>        -0.055911 
     13 C           4.834916    2.878491    4.206213 C.3       1 <1>        -0.065276 
     14 C          -6.346112   -0.104003   -3.521972 C.3       1 <1>        -0.065276 
     15 H           0.763631   -2.233005   -1.387174 H         1 <1>         0.029813 
     16 H           2.304159   -0.377562   -0.986423 H         1 <1>         0.026785 
     17 H           2.716417   -1.787237    0.010431 H         1 <1>         0.026785 
     18 H          -0.061698    0.160902   -1.515436 H         1 <1>         0.026785 
     19 H          -0.773750   -0.018916    0.109974 H         1 <1>         0.026785 
     20 H           1.661023   -0.669156    2.019671 H         1 <1>         0.026537 
     21 H           1.282320    0.757318    1.011208 H         1 <1>         0.026537 
     22 H          -2.283667   -1.821123   -0.716401 H         1 <1>         0.026537 
     23 H          -1.511179   -1.752369   -2.326790 H         1 <1>         0.026537 
     24 H           3.727395    1.076252    0.543824 H         1 <1>         0.026528 
     25 H           4.105349   -0.341600    1.562705 H         1 <1>         0.026528 
     26 H          -2.289401    0.629313   -2.582190 H         1 <1>         0.026528 
     27 H          -3.040858    0.557035   -0.963077 H         1 <1>         0.026528 
     28 H          -0.683580   -3.266502    0.278036 H         1 <1>         0.023242 
     29 H           0.958244   -3.271533    0.949101 H         1 <1>         0.023242 
     30 H          -0.236284   -2.072393    1.522089 H         1 <1>         0.023242 
     31 H           3.074988    0.814469    3.550891 H         1 <1>         0.026520 
     32 H           2.701381    2.232990    2.530960 H         1 <1>         0.026520 
     33 H          -4.553370   -1.298558   -1.751311 H         1 <1>         0.026520 
     34 H          -3.798043   -1.225489   -3.368813 H         1 <1>         0.026520 
     35 H           5.161659    2.555117    2.078665 H         1 <1>         0.026265 
     36 H           5.534296    1.138140    3.101654 H         1 <1>         0.026265 
     37 H          -4.577237    1.160390   -3.623141 H         1 <1>         0.026265 
     38 H          -5.332979    1.084966   -2.005684 H         1 <1>         0.026265 
     39 H           5.849150    3.270782    4.381929 H         1 <1>         0.022978 
     40 H           4.520773    2.309668    5.095233 H         1 <1>         0.022978 
     41 H           4.149289    3.729408    4.070263 H         1 <1>         0.022978 
     42 H          -7.037020    0.705337   -3.806735 H         1 <1>         0.022978 
     43 H          -6.856935   -0.763490   -2.803066 H         1 <1>         0.022978 
     44 H          -6.099522   -0.686897   -4.423152 H         1 <1>         0.022978 
@<TRIPOS>BOND
     1    1    2 1    
     2    1    3 1    
     3    1    8 1    
     4    1   15 1    
     5    2    4 1    
     6    2   16 1    
     7    2   17 1    
     8    3    5 1    
     9    3   18 1    
    10    3   19 1    
    11    4    6 1    
    12    4   20 1    
    13    4   21 1    
    14    5    7 1    
    15    5   22 1    
    16    5   23 1    
    17    6    9 1    
    18    6   24 1    
    19    6   25 1    
    20    7   10 1    
    21    7   26 1    
    22    7   27 1    
    23    8   28 1    
    24    8   29 1    
    25    8   30 1    
    26    9   11 1    
    27    9   31 1    
    28    9   32 1    
    29   10   12 1    
    30   10   33 1    
    31   10   34 1    
    32   11   13 1    
    33   11   35 1    
    34   11   36 1    
    35   12   14 1    
    36   12   37 1    
    37   12   38 1    
    38   13   39 1    
    39   13   40 1    
    40   13   41 1    
    41   14   42 1    
    42   14   43 1    
    43   14   44 1    
@<TRIPOS>SUBSTRUCTURE
     1 ****        1 TEMP              0 ****  ****    0 ROOT 
@<TRIPOS>NORMAL
@<TRIPOS>FF_PBC
FORCE_FIELD_SETUP_FEATURE Force Field Setup information
v1.0  0 0.000000 0.000000 0.000000 0.000000 0.000000 0.000000 NONE 0 0 0 0 1 0 0 0 0 0 0 0 0
