@<TRIPOS>MOLECULE
MOL008615
   31    30     1     1     0
SMALL
GASTEIGER


@<TRIPOS>ATOM
      1 C           2.021711    3.596675    0.000004 C.2       1 <1>         0.261905 
      2 C           0.736057    2.811398    0.000120 C.3       1 <1>         0.033189 
      3 C           0.973559    1.276853   -0.000040 C.3       1 <1>        -0.044055 
      4 C          -0.368458    0.494830    0.000050 C.3       1 <1>        -0.052596 
      5 C          -0.128505   -1.039908   -0.000139 C.3       1 <1>        -0.053035 
      6 C          -1.470255   -1.822623    0.000067 C.3       1 <1>        -0.052682 
      7 C          -1.230264   -3.357249   -0.000172 C.3       1 <1>        -0.046641 
      8 C          -2.570978   -4.140167    0.000353 C.3       1 <1>         0.002777 
      9 C          -2.356269   -5.631623   -0.000038 C.2       1 <1>         0.120308 
     10 O           3.114105    3.050129   -0.000193 O.2       1 <1>        -0.264985 
     11 O           1.863766    4.928881    0.000153 O.3       1 <1>        -0.318522 
     12 O          -3.318462   -6.382051   -0.001910 O.2       1 <1>        -0.301035 
     13 C           3.104282    5.662634    0.000029 C.3       1 <1>         0.045865 
     14 H           0.160764    3.099307    0.893896 H         1 <1>         0.036606 
     15 H           0.160539    3.099439   -0.893459 H         1 <1>         0.036606 
     16 H           1.558008    1.002430   -0.893958 H         1 <1>         0.027004 
     17 H           1.558189    1.002291    0.893725 H         1 <1>         0.027004 
     18 H          -0.951651    0.772305    0.893633 H         1 <1>         0.026540 
     19 H          -0.951845    0.772462   -0.893343 H         1 <1>         0.026540 
     20 H           0.454958   -1.317217   -0.893636 H         1 <1>         0.026529 
     21 H           0.455258   -1.317353    0.893105 H         1 <1>         0.026529 
     22 H          -2.053479   -1.545142    0.893600 H         1 <1>         0.026539 
     23 H          -2.053862   -1.544942   -0.893176 H         1 <1>         0.026539 
     24 H          -0.648714   -3.636466   -0.894514 H         1 <1>         0.026918 
     25 H          -0.648013   -3.636579    0.893640 H         1 <1>         0.026918 
     26 H          -3.157902   -3.875685    0.894255 H         1 <1>         0.033871 
     27 H          -3.158698   -3.875321   -0.892945 H         1 <1>         0.033871 
     28 H          -1.356638   -6.066039    0.001397 H         1 <1>         0.102608 
     29 H           2.861860    6.735544    0.000164 H         1 <1>         0.052962 
     30 H           3.700606    5.441162    0.899801 H         1 <1>         0.052962 
     31 H           3.700331    5.441321   -0.899966 H         1 <1>         0.052962 
@<TRIPOS>BOND
     1    1    2 1    
     2    1   10 2    
     3    1   11 1    
     4    2    3 1    
     5    2   14 1    
     6    2   15 1    
     7    3    4 1    
     8    3   16 1    
     9    3   17 1    
    10    4    5 1    
    11    4   18 1    
    12    4   19 1    
    13    5    6 1    
    14    5   20 1    
    15    5   21 1    
    16    6    7 1    
    17    6   22 1    
    18    6   23 1    
    19    7    8 1    
    20    7   24 1    
    21    7   25 1    
    22    8    9 1    
    23    8   26 1    
    24    8   27 1    
    25    9   12 2    
    26    9   28 1    
    27   11   13 1    
    28   13   29 1    
    29   13   30 1    
    30   13   31 1    
@<TRIPOS>SUBSTRUCTURE
     1 ****        1 TEMP              0 ****  ****    0 ROOT 
@<TRIPOS>NORMAL
@<TRIPOS>FF_PBC
FORCE_FIELD_SETUP_FEATURE Force Field Setup information
v1.0  0 0.000000 0.000000 0.000000 0.000000 0.000000 0.000000 NONE 0 0 0 0 1 0 0 0 0 0 0 0 0
