@<TRIPOS>MOLECULE
MOL000228
   34    36     1     1     0
SMALL
GASTEIGER


@<TRIPOS>ATOM
      1 C          -3.488406    1.107340    0.741040 C.ar      1 <1>        -0.001066 
      2 C          -3.614245   -0.131731    0.100265 C.ar      1 <1>         0.077511 
      3 C          -2.469264   -0.795462   -0.343167 C.ar      1 <1>        -0.001026 
      4 C          -1.206773   -0.233247   -0.150917 C.ar      1 <1>         0.092369 
      5 C          -1.086318    1.012935    0.473348 C.ar      1 <1>         0.077470 
      6 C          -2.225722    1.686267    0.931343 C.ar      1 <1>         0.091197 
      7 O          -0.076515   -0.927266   -0.592544 O.3       1 <1>        -0.335586 
      8 C           1.162049   -0.647627    0.082590 C.3       1 <1>         0.097160 
      9 C           1.455982    0.865752   -0.004319 C.3       1 <1>         0.041564 
     10 C           0.303145    1.591342    0.627514 C.2       1 <1>         0.170914 
     11 O          -2.071510    2.925764    1.567693 O.3       1 <1>        -0.347047 
     12 C          -3.179524    3.709277    2.039050 C.3       1 <1>         0.043055 
     13 O          -4.863804   -0.724214   -0.107331 O.3       1 <1>        -0.359667 
     14 O           0.514712    2.622632    1.244504 O.2       1 <1>        -0.291783 
     15 C           2.307814   -1.426315   -0.579475 C.ar      1 <1>        -0.017977 
     16 C           3.375720   -1.909460    0.186015 C.ar      1 <1>        -0.056091 
     17 C           4.414443   -2.622141   -0.420370 C.ar      1 <1>        -0.061420 
     18 C           4.393805   -2.852209   -1.798702 C.ar      1 <1>        -0.061740 
     19 C           3.333011   -2.367458   -2.568618 C.ar      1 <1>        -0.061420 
     20 C           2.294752   -1.656325   -1.959879 C.ar      1 <1>        -0.056091 
     21 H          -4.383837    1.607771    1.084818 H         1 <1>         0.066931 
     22 H          -2.560756   -1.755134   -0.839301 H         1 <1>         0.066932 
     23 H           1.059988   -0.959508    1.136198 H         1 <1>         0.065571 
     24 H           1.540041    1.175324   -1.057193 H         1 <1>         0.037400 
     25 H           2.397665    1.101728    0.516486 H         1 <1>         0.037400 
     26 H          -2.770115    4.629389    2.481439 H         1 <1>         0.052870 
     27 H          -3.846357    3.990701    1.209659 H         1 <1>         0.052870 
     28 H          -3.743157    3.173086    2.817798 H         1 <1>         0.052870 
     29 H          -5.604904   -0.229470    0.224269 H         1 <1>         0.217316 
     30 H           3.405664   -1.732675    1.256490 H         1 <1>         0.062111 
     31 H           5.238310   -2.997240    0.179357 H         1 <1>         0.061767 
     32 H           5.199944   -3.406103   -2.270293 H         1 <1>         0.061758 
     33 H           3.315494   -2.543234   -3.639981 H         1 <1>         0.061767 
     34 H           1.476667   -1.281489   -2.566787 H         1 <1>         0.062111 
@<TRIPOS>BOND
     1    1    2 ar   
     2    1    6 ar   
     3    1   21 1    
     4    2    3 ar   
     5    2   13 1    
     6    3    4 ar   
     7    3   22 1    
     8    4    5 ar   
     9    4    7 1    
    10    5    6 ar   
    11    5   10 1    
    12    6   11 1    
    13    7    8 1    
    14    8    9 1    
    15    8   15 1    
    16    8   23 1    
    17    9   10 1    
    18    9   24 1    
    19    9   25 1    
    20   10   14 2    
    21   11   12 1    
    22   12   26 1    
    23   12   27 1    
    24   12   28 1    
    25   13   29 1    
    26   15   16 ar   
    27   15   20 ar   
    28   16   17 ar   
    29   16   30 1    
    30   17   18 ar   
    31   17   31 1    
    32   18   19 ar   
    33   18   32 1    
    34   19   20 ar   
    35   19   33 1    
    36   20   34 1    
@<TRIPOS>SUBSTRUCTURE
     1 ****        1 TEMP              0 ****  ****    0 ROOT 
@<TRIPOS>NORMAL
@<TRIPOS>FF_PBC
FORCE_FIELD_SETUP_FEATURE Force Field Setup information
v1.0  0 0.000000 0.000000 0.000000 0.000000 0.000000 0.000000 NONE 0 0 0 0 1 0 0 0 0 0 0 0 0
