@<TRIPOS>MOLECULE
MOL001390
   42    44     1     1     0
SMALL
GASTEIGER


@<TRIPOS>ATOM
      1 C           2.148573   -1.541226   -0.697955 C.3       1 <1>        -0.047092 
      2 C           2.803681   -0.577668    0.320899 C.3       1 <1>        -0.049841 
      3 C           1.992910    0.731355    0.162834 C.3       1 <1>        -0.040417 
      4 C           0.545979    0.170524    0.097313 C.3       1 <1>        -0.029436 
      5 C          -0.474770    1.179627   -0.493927 C.3       1 <1>        -0.028878 
      6 C          -1.973121    0.814392   -0.335044 C.3       1 <1>        -0.031926 
      7 C          -2.310179   -0.534166    0.359533 C.3       1 <1>        -0.046841 
      8 C          -1.873018   -1.748319   -0.512879 C.3       1 <1>        -0.023716 
      9 C          -0.396425   -2.242892   -0.367661 C.3       1 <1>         0.066402 
     10 C           0.640505   -1.129966   -0.751830 C.3       1 <1>        -0.009033 
     11 C          -1.390153    2.048321    0.408530 C.3       1 <1>        -0.028416 
     12 O          -0.315432   -3.296877   -1.349240 O.3       1 <1>        -0.388563 
     13 C           2.430069    1.528450   -1.099094 C.3       1 <1>        -0.062145 
     14 C          -0.168269   -2.897353    1.032942 C.3       1 <1>        -0.035809 
     15 C          -1.730851    3.430587   -0.210778 C.3       1 <1>        -0.059280 
     16 C          -1.146662    2.074864    1.943713 C.3       1 <1>        -0.059280 
     17 H           2.351190   -2.584276   -0.419440 H         1 <1>         0.026900 
     18 H           2.622464   -1.384480   -1.681919 H         1 <1>         0.026900 
     19 H           3.885196   -0.444534    0.155401 H         1 <1>         0.026804 
     20 H           2.657939   -0.975539    1.340148 H         1 <1>         0.026804 
     21 H           2.135533    1.387533    1.040571 H         1 <1>         0.030098 
     22 H           0.309466   -0.106185    1.128117 H         1 <1>         0.030984 
     23 H          -0.276603    1.547471   -1.513052 H         1 <1>         0.031172 
     24 H          -2.565253    1.041939   -1.237749 H         1 <1>         0.030897 
     25 H          -3.411457   -0.532475    0.418736 H         1 <1>         0.026908 
     26 H          -1.960441   -0.646599    1.388992 H         1 <1>         0.026908 
     27 H          -2.065556   -1.504638   -1.570493 H         1 <1>         0.029291 
     28 H          -2.525516   -2.601739   -0.262938 H         1 <1>         0.029291 
     29 H           0.411450   -0.867855   -1.799353 H         1 <1>         0.033119 
     30 H           0.522596   -3.743062   -1.384753 H         1 <1>         0.210159 
     31 H           1.915462    2.501182   -1.132037 H         1 <1>         0.023250 
     32 H           3.512060    1.727409   -1.058674 H         1 <1>         0.023250 
     33 H           2.211976    0.986644   -2.030388 H         1 <1>         0.023250 
     34 H          -0.272371   -2.197572    1.870562 H         1 <1>         0.025730 
     35 H           0.824405   -3.358585    1.113244 H         1 <1>         0.025730 
     36 H          -0.905142   -3.701334    1.180489 H         1 <1>         0.025730 
     37 H          -2.661352    3.806864    0.239707 H         1 <1>         0.023516 
     38 H          -0.916259    4.135003    0.014941 H         1 <1>         0.023516 
     39 H          -1.866859    3.395613   -1.302423 H         1 <1>         0.023516 
     40 H          -1.985135    2.611027    2.412289 H         1 <1>         0.023516 
     41 H          -0.224616    2.644920    2.131382 H         1 <1>         0.023516 
     42 H          -1.059191    1.111600    2.455207 H         1 <1>         0.023516 
@<TRIPOS>BOND
     1    1    2 1    
     2    1   10 1    
     3    1   17 1    
     4    1   18 1    
     5    2    3 1    
     6    2   19 1    
     7    2   20 1    
     8    3    4 1    
     9    3   13 1    
    10    3   21 1    
    11    4    5 1    
    12    4   10 1    
    13    4   22 1    
    14    5    6 1    
    15    5   11 1    
    16    5   23 1    
    17    6    7 1    
    18    6   11 1    
    19    6   24 1    
    20    7    8 1    
    21    7   25 1    
    22    7   26 1    
    23    8    9 1    
    24    8   27 1    
    25    8   28 1    
    26    9   10 1    
    27    9   12 1    
    28    9   14 1    
    29   10   29 1    
    30   11   15 1    
    31   11   16 1    
    32   12   30 1    
    33   13   31 1    
    34   13   32 1    
    35   13   33 1    
    36   14   34 1    
    37   14   35 1    
    38   14   36 1    
    39   15   37 1    
    40   15   38 1    
    41   15   39 1    
    42   16   40 1    
    43   16   41 1    
    44   16   42 1    
@<TRIPOS>SUBSTRUCTURE
     1 ****        1 TEMP              0 ****  ****    0 ROOT 
@<TRIPOS>NORMAL
@<TRIPOS>FF_PBC
FORCE_FIELD_SETUP_FEATURE Force Field Setup information
v1.0  0 0.000000 0.000000 0.000000 0.000000 0.000000 0.000000 NONE 0 0 0 0 1 0 0 0 0 0 0 0 0
