@<TRIPOS>MOLECULE
MOL002140
   32    35     1     1     0
SMALL
GASTEIGER


@<TRIPOS>ATOM
      1 C           0.322960    0.776161   -0.044657 C.ar      1 <1>         0.249456 
      2 C           0.129168    2.236715   -0.132830 C.ar      1 <1>         0.063525 
      3 C           1.642126    0.251045   -0.009240 C.ar      1 <1>         0.239735 
      4 N          -0.962884    0.172000   -0.012181 N.ar      1 <1>        -0.201901 
      5 C          -1.327385    2.476048   -0.150703 C.ar      1 <1>         0.059686 
      6 C           1.198062    3.117367   -0.183038 C.ar      1 <1>        -0.029313 
      7 C           1.916404   -1.203600    0.079183 C.ar      1 <1>         0.387839 
      8 N           2.717298    1.135218   -0.059501 N.ar      1 <1>        -0.240895 
      9 C          -1.965198    1.148552   -0.072697 C.ar      1 <1>         0.214546 
     10 C          -2.070151    3.663269   -0.223541 C.ar      1 <1>        -0.047523 
     11 C           2.554196    2.517542   -0.143321 C.ar      1 <1>         0.029578 
     12 O           0.898033   -2.168746    0.134430 O.2       1 <1>        -0.204836 
     13 C           3.170817   -1.746288    0.115451 C.ar      1 <1>         0.053570 
     14 C          -3.360169    1.015254   -0.067678 C.ar      1 <1>         0.010305 
     15 C          -3.549739    3.542671   -0.219542 C.ar      1 <1>        -0.060769 
     16 C           1.620689   -3.384240    0.208845 C.ar      1 <1>         0.358218 
     17 C           2.972420   -3.199369    0.201841 C.ar      1 <1>         0.049209 
     18 C          -4.177048    2.253583   -0.143591 C.ar      1 <1>        -0.055506 
     19 C           0.931123   -4.749245    0.287534 C.3       1 <1>         0.159212 
     20 O          -0.493296   -4.539901    0.238134 O.3       1 <1>        -0.381614 
     21 H          -1.168271   -0.817358    0.044620 H         1 <1>         0.453546 
     22 H           1.052409    4.190614   -0.247984 H         1 <1>         0.064086 
     23 H          -1.584906    4.631893   -0.280511 H         1 <1>         0.062574 
     24 H           3.429991    3.158178   -0.179642 H         1 <1>         0.082984 
     25 H           4.117946   -1.217091    0.086493 H         1 <1>         0.071493 
     26 H          -3.831019    0.039733   -0.010263 H         1 <1>         0.068340 
     27 H          -4.160800    4.438560   -0.274573 H         1 <1>         0.061781 
     28 H           3.741471   -3.963457    0.249722 H         1 <1>         0.071128 
     29 H          -5.260454    2.181997   -0.141571 H         1 <1>         0.061965 
     30 H           1.223519   -5.239631    1.231064 H         1 <1>         0.069674 
     31 H           1.266971   -5.366151   -0.562723 H         1 <1>         0.069674 
     32 H          -0.994887   -5.351124    0.282273 H         1 <1>         0.210231 
@<TRIPOS>BOND
     1    1    2 1    
     2    1    3 2    
     3    1    4 1    
     4    2    5 1    
     5    2    6 2    
     6    3    7 1    
     7    3    8 1    
     8    4    9 1    
     9    4   21 1    
    10    5    9 1    
    11    5   10 2    
    12    6   11 1    
    13    6   22 1    
    14    7   12 1    
    15    7   13 2    
    16    8   11 2    
    17    9   14 2    
    18   10   15 1    
    19   10   23 1    
    20   11   24 1    
    21   12   16 1    
    22   13   17 1    
    23   13   25 1    
    24   14   18 1    
    25   14   26 1    
    26   15   18 2    
    27   15   27 1    
    28   16   17 2    
    29   16   19 1    
    30   17   28 1    
    31   18   29 1    
    32   19   20 1    
    33   19   30 1    
    34   19   31 1    
    35   20   32 1    
@<TRIPOS>SUBSTRUCTURE
     1 ****        1 TEMP              0 ****  ****    0 ROOT 
@<TRIPOS>NORMAL
@<TRIPOS>FF_PBC
FORCE_FIELD_SETUP_FEATURE Force Field Setup information
v1.0  0 0.000000 0.000000 0.000000 0.000000 0.000000 0.000000 NONE 0 0 0 0 1 0 0 0 0 0 0 0 0
