@<TRIPOS>MOLECULE
MOL008044
   38    40     1     1     0
SMALL
GASTEIGER


@<TRIPOS>ATOM
      1 O          -0.949258    0.919745    0.042606 O.3       1 <1>        -0.285630 
      2 O           4.527823   -0.597448    0.090456 O.3       1 <1>        -0.342940 
      3 O          -2.662481    2.467644    0.130730 O.3       1 <1>        -0.286517 
      4 O           2.478748   -2.566407   -0.142620 O.3       1 <1>        -0.345170 
      5 O           3.811529    2.175410    0.291997 O.3       1 <1>        -0.356589 
      6 O           1.732312    3.947660    0.348858 O.2       1 <1>        -0.286945 
      7 O          -5.986274   -2.131341   -0.163471 O.3       1 <1>        -0.359830 
      8 C           1.458534    1.575796    0.162307 C.ar      1 <1>         0.084635 
      9 C           0.397756    0.552446    0.046165 C.ar      1 <1>         0.101219 
     10 C           2.816008    1.203792    0.178887 C.ar      1 <1>         0.118473 
     11 C           3.178531   -0.232503    0.072525 C.ar      1 <1>         0.136266 
     12 C           0.741370   -0.796764   -0.060102 C.ar      1 <1>         0.002338 
     13 C           2.162182   -1.210995   -0.043870 C.ar      1 <1>         0.110696 
     14 C           0.971233    2.999067    0.256248 C.2       1 <1>         0.195584 
     15 C          -1.353574    2.199522    0.134974 C.2       1 <1>         0.198112 
     16 C          -0.480483    3.210029    0.232087 C.2       1 <1>         0.040973 
     17 C          -3.478708    1.340604    0.052430 C.ar      1 <1>         0.085498 
     18 C          -3.923958    0.717003    1.221766 C.ar      1 <1>        -0.028666 
     19 C          -3.869470    0.800568   -1.270545 C.ar      1 <1>        -0.028666 
     20 C           5.047653   -1.014358   -1.182771 C.3       1 <1>         0.043243 
     21 C           2.931777   -3.156035    1.086768 C.3       1 <1>         0.043138 
     22 C          -4.790229   -0.483138    1.136604 C.ar      1 <1>        -0.029486 
     23 C          -4.690992   -0.337862   -1.351504 C.ar      1 <1>        -0.029486 
     24 C          -5.167782   -1.000790   -0.110748 C.ar      1 <1>         0.072739 
     25 H          -0.036376   -1.546412   -0.152791 H         1 <1>         0.067040 
     26 H          -0.855385    4.230825    0.298320 H         1 <1>         0.070334 
     27 H           4.680394    1.786673    0.328642 H         1 <1>         0.217446 
     28 H          -3.632189    1.113100    2.188208 H         1 <1>         0.064424 
     29 H          -3.514883    1.289852   -2.171388 H         1 <1>         0.064424 
     30 H           4.953212   -0.202145   -1.920416 H         1 <1>         0.052872 
     31 H           4.529747   -1.909838   -1.559394 H         1 <1>         0.052872 
     32 H           6.113996   -1.254142   -1.057803 H         1 <1>         0.052872 
     33 H           3.150370   -4.217218    0.898273 H         1 <1>         0.052871 
     34 H           2.149294   -3.088796    1.858715 H         1 <1>         0.052871 
     35 H           3.847997   -2.669746    1.455339 H         1 <1>         0.052871 
     36 H          -5.136378   -0.966370    2.043884 H         1 <1>         0.064400 
     37 H          -4.972834   -0.727370   -2.323349 H         1 <1>         0.064400 
     38 H          -6.180911   -2.420359   -1.047520 H         1 <1>         0.217313 
@<TRIPOS>BOND
     1    1    9 1    
     2   15    1 1    
     3   11    2 1    
     4    2   20 1    
     5    3   15 1    
     6   17    3 1    
     7   13    4 1    
     8    4   21 1    
     9   10    5 1    
    10    5   27 1    
    11   14    6 2    
    12   24    7 1    
    13    7   38 1    
    14    9    8 1    
    15    8   10 2    
    16   14    8 1    
    17    9   12 2    
    18   10   11 1    
    19   13   11 2    
    20   12   13 1    
    21   12   25 1    
    22   16   14 1    
    23   15   16 2    
    24   16   26 1    
    25   18   17 2    
    26   17   19 1    
    27   22   18 1    
    28   18   28 1    
    29   19   23 2    
    30   19   29 1    
    31   20   30 1    
    32   20   31 1    
    33   20   32 1    
    34   21   33 1    
    35   21   34 1    
    36   21   35 1    
    37   22   24 2    
    38   22   36 1    
    39   23   24 1    
    40   23   37 1    
@<TRIPOS>SUBSTRUCTURE
     1 ****        1 TEMP              0 ****  ****    0 ROOT 
@<TRIPOS>NORMAL
@<TRIPOS>FF_PBC
FORCE_FIELD_SETUP_FEATURE Force Field Setup information
v1.0  0 0.000000 0.000000 0.000000 0.000000 0.000000 0.000000 NONE 0 0 0 0 1 0 0 0 0 0 0 0 0
