@<TRIPOS>MOLECULE
MOL000389
   24    24     1     1     0
SMALL
GASTEIGER


@<TRIPOS>ATOM
      1 C           3.588301   -0.505079    0.499029 C.2       1 <1>         0.284026 
      2 C           3.371376    0.820198   -0.113224 C.2       1 <1>         0.010298 
      3 C           2.209169    1.343149   -0.529170 C.2       1 <1>        -0.048861 
      4 C           0.883978    0.613275   -0.508168 C.ar      1 <1>        -0.022251 
      5 C          -0.321732    1.323061   -0.020585 C.ar      1 <1>        -0.022000 
      6 C          -1.580130    0.697311    0.023260 C.ar      1 <1>         0.105959 
      7 C          -1.704433   -0.720297   -0.426610 C.ar      1 <1>         0.102471 
      8 C          -0.549417   -1.393086   -0.905883 C.ar      1 <1>        -0.028841 
      9 C           0.763963   -0.709517   -0.954608 C.ar      1 <1>        -0.051998 
     10 O           4.717944   -0.969941    0.515881 O.2       1 <1>        -0.260082 
     11 O           2.568599   -1.173724    1.042919 O.3       1 <1>        -0.327929 
     12 O          -2.669119    1.449137    0.492989 O.3       1 <1>        -0.345331 
     13 C          -4.004978    0.925697    0.531689 C.3       1 <1>         0.043136 
     14 O          -2.936778   -1.383182   -0.381200 O.3       1 <1>        -0.357268 
     15 H           4.268288    1.431611   -0.219786 H         1 <1>         0.067729 
     16 H           2.192646    2.365004   -0.912111 H         1 <1>         0.062526 
     17 H          -0.237424    2.351850    0.311277 H         1 <1>         0.065001 
     18 H          -0.614361   -2.421582   -1.243644 H         1 <1>         0.064421 
     19 H           1.627532   -1.240092   -1.342085 H         1 <1>         0.062425 
     20 H           2.838159   -2.007262    1.413414 H         1 <1>         0.220537 
     21 H          -4.663840    1.721946    0.906753 H         1 <1>         0.052871 
     22 H          -4.346912    0.641004   -0.475142 H         1 <1>         0.052871 
     23 H          -4.075775    0.069668    1.219760 H         1 <1>         0.052871 
     24 H          -2.894338   -2.313548   -0.571769 H         1 <1>         0.217422 
@<TRIPOS>BOND
     1    1    2 1    
     2    1   10 2    
     3    1   11 1    
     4    2    3 2    
     5    2   15 1    
     6    3    4 1    
     7    3   16 1    
     8    4    5 1    
     9    4    9 2    
    10    5    6 2    
    11    5   17 1    
    12    6    7 1    
    13    6   12 1    
    14    7    8 2    
    15    7   14 1    
    16    8    9 1    
    17    8   18 1    
    18    9   19 1    
    19   11   20 1    
    20   12   13 1    
    21   13   21 1    
    22   13   22 1    
    23   13   23 1    
    24   14   24 1    
@<TRIPOS>SUBSTRUCTURE
     1 ****        1 TEMP              0 ****  ****    0 ROOT 
@<TRIPOS>NORMAL
@<TRIPOS>FF_PBC
FORCE_FIELD_SETUP_FEATURE Force Field Setup information
v1.0  0 0.000000 0.000000 0.000000 0.000000 0.000000 0.000000 NONE 0 0 0 0 1 0 0 0 0 0 0 0 0
