@<TRIPOS>MOLECULE
MOL000775
   14    13     1     1     0
SMALL
GASTEIGER


@<TRIPOS>ATOM
      1 O          -0.061787    0.301686   -0.000098 O.3       1 <1>        -0.315678 
      2 C          -1.269583   -0.281994    0.000033 C.2       1 <1>         0.259032 
      3 C           1.037962   -0.630732    0.000094 C.3       1 <1>         0.054234 
      4 C          -2.444031    0.656871   -0.000106 C.3       1 <1>         0.021433 
      5 O          -1.434459   -1.492109    0.000232 O.2       1 <1>        -0.265283 
      6 C           2.354953    0.181167   -0.000090 C.3       1 <1>        -0.040980 
      7 H           1.007670   -1.270443    0.899051 H         1 <1>         0.056303 
      8 H           1.007668   -1.270844   -0.898578 H         1 <1>         0.056303 
      9 H          -2.113636    1.706655    0.000084 H         1 <1>         0.033023 
     10 H          -3.055328    0.475452   -0.896302 H         1 <1>         0.033023 
     11 H          -3.055711    0.475255    0.895788 H         1 <1>         0.033023 
     12 H           3.225509   -0.493608    0.000069 H         1 <1>         0.025189 
     13 H           2.400339    0.821217   -0.894982 H         1 <1>         0.025189 
     14 H           2.400333    0.821628    0.894508 H         1 <1>         0.025189 
@<TRIPOS>BOND
     1    1    2 1    
     2    1    3 1    
     3    2    4 1    
     4    2    5 2    
     5    3    6 1    
     6    3    7 1    
     7    3    8 1    
     8    4    9 1    
     9    4   10 1    
    10    4   11 1    
    11    6   12 1    
    12    6   13 1    
    13    6   14 1    
@<TRIPOS>SUBSTRUCTURE
     1 ****        1 TEMP              0 ****  ****    0 ROOT 
@<TRIPOS>NORMAL
@<TRIPOS>FF_PBC
FORCE_FIELD_SETUP_FEATURE Force Field Setup information
v1.0  0 0.000000 0.000000 0.000000 0.000000 0.000000 0.000000 NONE 0 0 0 0 1 0 0 0 0 0 0 0 0
