@<TRIPOS>MOLECULE
MOL004880
   27    28     1     1     0
SMALL
GASTEIGER


@<TRIPOS>ATOM
      1 N           0.827556   -1.680378    0.247115 N.ar      1 <1>        -0.256501 
      2 C          -0.328320   -2.347922    0.030626 C.ar      1 <1>         0.038787 
      3 C          -1.571652   -1.600046   -0.262511 C.ar      1 <1>        -0.037469 
      4 C          -1.531226   -0.206788   -0.313219 C.ar      1 <1>        -0.043894 
      5 C          -0.231481    0.470881   -0.061173 C.ar      1 <1>        -0.023149 
      6 C          -0.148468    2.003457   -0.107875 C.3       1 <1>        -0.025724 
      7 C           1.146661    2.553803    0.539287 C.3       1 <1>        -0.048654 
      8 C           2.364744    1.771533   -0.004153 C.3       1 <1>        -0.047335 
      9 C           2.277996    0.306185    0.485627 C.3       1 <1>        -0.010115 
     10 C           0.908886   -0.319926    0.213012 C.ar      1 <1>         0.044988 
     11 C          -2.801696    0.595377   -0.624977 C.3       1 <1>        -0.039341 
     12 C          -0.343115   -3.874126    0.089024 C.3       1 <1>        -0.022342 
     13 H          -2.495420   -2.141215   -0.434851 H         1 <1>         0.063806 
     14 H          -1.014440    2.451371    0.404122 H         1 <1>         0.031381 
     15 H          -0.179146    2.296045   -1.169469 H         1 <1>         0.031381 
     16 H           1.096486    2.444322    1.635533 H         1 <1>         0.026850 
     17 H           1.249045    3.627251    0.306610 H         1 <1>         0.026850 
     18 H           2.366596    1.802574   -1.106371 H         1 <1>         0.026896 
     19 H           3.303246    2.225754    0.355811 H         1 <1>         0.026896 
     20 H           3.055331   -0.300760   -0.005432 H         1 <1>         0.032827 
     21 H           2.441107    0.261306    1.573989 H         1 <1>         0.032827 
     22 H          -3.606538   -0.050470   -1.006823 H         1 <1>         0.027763 
     23 H          -3.153784    1.086015    0.294389 H         1 <1>         0.027763 
     24 H          -2.588483    1.359033   -1.387178 H         1 <1>         0.027763 
     25 H           0.665201   -4.253463    0.313016 H         1 <1>         0.029249 
     26 H          -1.036293   -4.204767    0.876551 H         1 <1>         0.029249 
     27 H          -0.672395   -4.275546   -0.880779 H         1 <1>         0.029249 
@<TRIPOS>BOND
     1    1    2 2    
     2    1   10 1    
     3    2    3 1    
     4    2   12 1    
     5    3    4 2    
     6    3   13 1    
     7    4    5 1    
     8    4   11 1    
     9    5    6 1    
    10    5   10 2    
    11    6    7 1    
    12    6   14 1    
    13    6   15 1    
    14    7    8 1    
    15    7   16 1    
    16    7   17 1    
    17    8    9 1    
    18    8   18 1    
    19    8   19 1    
    20    9   10 1    
    21    9   20 1    
    22    9   21 1    
    23   11   22 1    
    24   11   23 1    
    25   11   24 1    
    26   12   25 1    
    27   12   26 1    
    28   12   27 1    
@<TRIPOS>SUBSTRUCTURE
     1 ****        1 TEMP              0 ****  ****    0 ROOT 
@<TRIPOS>NORMAL
@<TRIPOS>FF_PBC
FORCE_FIELD_SETUP_FEATURE Force Field Setup information
v1.0  0 0.000000 0.000000 0.000000 0.000000 0.000000 0.000000 NONE 0 0 0 0 1 0 0 0 0 0 0 0 0
