@<TRIPOS>MOLECULE
MOL011310
   27    28     1     1     0
SMALL
GASTEIGER


@<TRIPOS>ATOM
      1 C          -1.220816    1.398330   -0.386834 C.3       1 <1>         0.076553 
      2 C          -1.345958    0.107068   -1.263173 C.3       1 <1>        -0.019630 
      3 C          -0.039614   -0.737351   -1.235805 C.3       1 <1>        -0.032147 
      4 C           1.153009    0.251591   -1.307721 C.3       1 <1>        -0.042499 
      5 C           1.030529    0.316950    0.236529 C.3       1 <1>        -0.012079 
      6 C          -0.042799    1.330434    0.574471 C.2       1 <1>        -0.044924 
      7 C           0.037927    2.113469    1.657611 C.2       1 <1>        -0.096745 
      8 C           0.382894   -1.092144    0.218642 C.3       1 <1>        -0.025370 
      9 C           1.434114   -2.243593    0.272183 C.3       1 <1>        -0.059014 
     10 C          -0.732052   -1.382246    1.270325 C.3       1 <1>        -0.059014 
     11 O          -1.034974    2.529336   -1.259789 O.3       1 <1>        -0.387492 
     12 H          -2.163959    1.552091    0.167970 H         1 <1>         0.064023 
     13 H          -1.558273    0.395682   -2.305188 H         1 <1>         0.029612 
     14 H          -2.180308   -0.531684   -0.932665 H         1 <1>         0.029612 
     15 H          -0.024240   -1.573456   -1.954221 H         1 <1>         0.030720 
     16 H           2.089435   -0.211914   -1.653669 H         1 <1>         0.027399 
     17 H           0.995251    1.191884   -1.858311 H         1 <1>         0.027399 
     18 H           1.976257    0.406736    0.794655 H         1 <1>         0.035170 
     19 H          -0.744518    2.836041    1.887004 H         1 <1>         0.053529 
     20 H           0.886182    2.049003    2.338174 H         1 <1>         0.053529 
     21 H           0.934777   -3.201908    0.063487 H         1 <1>         0.023525 
     22 H           1.875110   -2.293382    1.279286 H         1 <1>         0.023525 
     23 H           2.258564   -2.137481   -0.445150 H         1 <1>         0.023525 
     24 H          -1.240975   -2.321096    1.005097 H         1 <1>         0.023525 
     25 H          -0.268905   -1.504395    2.260954 H         1 <1>         0.023525 
     26 H          -1.498659   -0.603986    1.370421 H         1 <1>         0.023525 
     27 H          -0.957895    3.356322   -0.794185 H         1 <1>         0.210218 
@<TRIPOS>BOND
     1    1    2 1    
     2    1    6 1    
     3    1   11 1    
     4    1   12 1    
     5    2    3 1    
     6    2   13 1    
     7    2   14 1    
     8    3    4 1    
     9    3    8 1    
    10    3   15 1    
    11    4    5 1    
    12    4   16 1    
    13    4   17 1    
    14    5    6 1    
    15    5    8 1    
    16    5   18 1    
    17    6    7 2    
    18    7   19 1    
    19    7   20 1    
    20    8    9 1    
    21    8   10 1    
    22    9   21 1    
    23    9   22 1    
    24    9   23 1    
    25   10   24 1    
    26   10   25 1    
    27   10   26 1    
    28   11   27 1    
@<TRIPOS>SUBSTRUCTURE
     1 ****        1 TEMP              0 ****  ****    0 ROOT 
@<TRIPOS>NORMAL
@<TRIPOS>FF_PBC
FORCE_FIELD_SETUP_FEATURE Force Field Setup information
v1.0  0 0.000000 0.000000 0.000000 0.000000 0.000000 0.000000 NONE 0 0 0 0 1 0 0 0 0 0 0 0 0
