@<TRIPOS>MOLECULE
MOL005017
   41    44     1     1     0
SMALL
GASTEIGER


@<TRIPOS>ATOM
      1 O           2.714031    1.906353   -0.242057 O.2       1 <1>        -0.202788 
      2 O          -0.622494   -0.520280    0.683211 O.3       1 <1>        -0.272422 
      3 O          -3.854658    3.151855    0.226837 O.3       1 <1>        -0.359467 
      4 O           0.826878   -2.196724    0.861910 O.2       1 <1>        -0.258461 
      5 O           7.379170    0.175668   -0.352991 O.3       1 <1>        -0.359526 
      6 C           0.183098    1.728765    0.081045 C.ar      1 <1>         0.110633 
      7 C           1.566262    1.206206    0.039530 C.ar      1 <1>         0.379722 
      8 C           1.764132   -0.101774    0.304619 C.ar      1 <1>         0.167099 
      9 C          -0.868145    0.837175    0.409909 C.ar      1 <1>         0.108491 
     10 C          -2.262504    1.343652    0.465767 C.ar      1 <1>         0.017478 
     11 C           3.207310   -0.316138    0.190836 C.ar      1 <1>         0.101009 
     12 C           3.700742    0.934027   -0.134078 C.ar      1 <1>         0.367049 
     13 C          -3.383669    0.364173    0.837037 C.3       1 <1>        -0.004313 
     14 C          -0.105172    3.151781   -0.214481 C.ar      1 <1>        -0.040608 
     15 C           0.617497   -1.017642    0.636964 C.2       1 <1>         0.308832 
     16 C          -2.536985    2.691973    0.180597 C.ar      1 <1>         0.078552 
     17 C          -1.426686    3.616371   -0.167389 C.ar      1 <1>        -0.030647 
     18 C           4.060127   -1.510906    0.356371 C.ar      1 <1>        -0.042114 
     19 C           5.157379    1.111264   -0.325190 C.ar      1 <1>         0.072784 
     20 C          -3.622660   -0.542397   -0.348276 C.2       1 <1>        -0.080815 
     21 C           5.447880   -1.338968    0.172219 C.ar      1 <1>        -0.030761 
     22 C           6.007407    0.000127   -0.173785 C.ar      1 <1>         0.081518 
     23 C          -3.496407   -1.880035   -0.407967 C.2       1 <1>        -0.079306 
     24 C          -3.818092   -2.622915   -1.689083 C.3       1 <1>        -0.044040 
     25 C          -3.052657   -2.763023    0.740688 C.3       1 <1>        -0.044040 
     26 H          -3.103484   -0.146058    1.766621 H         1 <1>         0.035722 
     27 H          -4.324235    0.895888    1.047209 H         1 <1>         0.035722 
     28 H           0.702017    3.832441   -0.467419 H         1 <1>         0.062802 
     29 H          -1.635371    4.658521   -0.386479 H         1 <1>         0.064352 
     30 H           3.634225   -2.477606    0.608557 H         1 <1>         0.062744 
     31 H           5.564305    2.084003   -0.577341 H         1 <1>         0.073776 
     32 H          -3.942021   -0.007483   -1.244106 H         1 <1>         0.057473 
     33 H           6.109193   -2.192142    0.284383 H         1 <1>         0.064346 
     34 H          -3.955166    4.071540    0.009180 H         1 <1>         0.217326 
     35 H          -2.910666   -3.118256   -2.065671 H         1 <1>         0.027427 
     36 H          -4.578873   -3.390644   -1.481867 H         1 <1>         0.027427 
     37 H          -4.204619   -1.972881   -2.488519 H         1 <1>         0.027427 
     38 H          -3.945835   -3.160641    1.245450 H         1 <1>         0.027427 
     39 H          -2.465878   -3.611877    0.358262 H         1 <1>         0.027427 
     40 H          -2.421779   -2.260716    1.483794 H         1 <1>         0.027427 
     41 H           7.894504   -0.613578   -0.224396 H         1 <1>         0.217318 
@<TRIPOS>BOND
     1    1    7 1    
     2   12    1 1    
     3    2    9 1    
     4   15    2 1    
     5   16    3 1    
     6    3   34 1    
     7   15    4 2    
     8   22    5 1    
     9    5   41 1    
    10    7    6 1    
    11    6    9 2    
    12    6   14 1    
    13    8    7 2    
    14   11    8 1    
    15    8   15 1    
    16    9   10 1    
    17   10   13 1    
    18   10   16 2    
    19   12   11 2    
    20   11   18 1    
    21   19   12 1    
    22   13   20 1    
    23   13   26 1    
    24   13   27 1    
    25   14   17 2    
    26   14   28 1    
    27   17   16 1    
    28   17   29 1    
    29   18   21 2    
    30   18   30 1    
    31   19   22 2    
    32   19   31 1    
    33   20   23 2    
    34   20   32 1    
    35   21   22 1    
    36   21   33 1    
    37   23   24 1    
    38   23   25 1    
    39   24   35 1    
    40   24   36 1    
    41   24   37 1    
    42   25   38 1    
    43   25   39 1    
    44   25   40 1    
@<TRIPOS>SUBSTRUCTURE
     1 ****        1 TEMP              0 ****  ****    0 ROOT 
@<TRIPOS>NORMAL
@<TRIPOS>FF_PBC
FORCE_FIELD_SETUP_FEATURE Force Field Setup information
v1.0  0 0.000000 0.000000 0.000000 0.000000 0.000000 0.000000 NONE 0 0 0 0 1 0 0 0 0 0 0 0 0
