@<TRIPOS>MOLECULE
MOL004057
   39    41     1     1     0
SMALL
GASTEIGER


@<TRIPOS>ATOM
      1 C           0.375552   -0.820468    0.669256 C.3       1 <1>        -0.032241 
      2 C          -1.067416   -1.218051    0.192389 C.3       1 <1>        -0.025284 
      3 C           0.814275    0.668780    0.508981 C.3       1 <1>        -0.034581 
      4 C           2.364200    0.554480    0.566131 C.3       1 <1>        -0.040750 
      5 C           0.278354    1.387437   -0.766538 C.3       1 <1>        -0.043163 
      6 C          -1.275823    1.381211   -0.873485 C.3       1 <1>        -0.019847 
      7 C           1.559787   -1.694665    0.135552 C.3       1 <1>        -0.049195 
      8 C          -1.255174   -1.117530   -1.359211 C.3       1 <1>        -0.046533 
      9 C          -2.107070   -0.286421    0.888239 C.3       1 <1>        -0.026049 
     10 C           2.665725   -0.695740   -0.288821 C.3       1 <1>        -0.049923 
     11 C          -1.783858    0.266848   -1.819252 C.3       1 <1>        -0.046000 
     12 C          -1.916434    1.156722    0.478010 C.2       1 <1>        -0.072992 
     13 C          -1.350271   -2.687075    0.642746 C.3       1 <1>        -0.059010 
     14 C           3.157006    1.810044    0.116441 C.3       1 <1>        -0.062154 
     15 C          -2.288286    2.173633    1.266644 C.2       1 <1>        -0.099166 
     16 H           0.370778   -0.973333    1.764719 H         1 <1>         0.030888 
     17 H           0.486125    1.275543    1.373749 H         1 <1>         0.030637 
     18 H           2.654856    0.326329    1.608802 H         1 <1>         0.030088 
     19 H           0.719356    0.982206   -1.688102 H         1 <1>         0.027380 
     20 H           0.594897    2.441582   -0.693628 H         1 <1>         0.027380 
     21 H          -1.623500    2.338781   -1.301854 H         1 <1>         0.034560 
     22 H           1.320067   -2.363176   -0.703254 H         1 <1>         0.026828 
     23 H           1.952087   -2.336395    0.944285 H         1 <1>         0.026828 
     24 H          -1.974843   -1.870474   -1.721144 H         1 <1>         0.027087 
     25 H          -0.308887   -1.318714   -1.878982 H         1 <1>         0.027087 
     26 H          -2.033406   -0.383901    1.982998 H         1 <1>         0.031535 
     27 H          -3.125244   -0.584404    0.593123 H         1 <1>         0.031535 
     28 H           3.683269   -1.085413   -0.118783 H         1 <1>         0.026803 
     29 H           2.567868   -0.456418   -1.359319 H         1 <1>         0.026803 
     30 H          -1.476075    0.465887   -2.860203 H         1 <1>         0.027114 
     31 H          -2.887774    0.280515   -1.800542 H         1 <1>         0.027114 
     32 H          -0.688627   -3.397438    0.126612 H         1 <1>         0.023525 
     33 H          -2.389219   -2.972472    0.416423 H         1 <1>         0.023525 
     34 H          -1.203260   -2.806949    1.727032 H         1 <1>         0.023525 
     35 H           3.000502    2.028828   -0.950125 H         1 <1>         0.023250 
     36 H           4.234059    1.643246    0.273871 H         1 <1>         0.023250 
     37 H           2.846438    2.683176    0.710811 H         1 <1>         0.023250 
     38 H          -2.137913    3.208672    0.961769 H         1 <1>         0.053449 
     39 H          -2.750920    1.994016    2.236459 H         1 <1>         0.053449 
@<TRIPOS>BOND
     1    1    2 1    
     2    1    3 1    
     3    1    7 1    
     4    1   16 1    
     5    2    8 1    
     6    2    9 1    
     7    2   13 1    
     8    3    4 1    
     9    3    5 1    
    10    3   17 1    
    11    4   10 1    
    12    4   14 1    
    13    4   18 1    
    14    5    6 1    
    15    5   19 1    
    16    5   20 1    
    17    6   11 1    
    18    6   12 1    
    19    6   21 1    
    20    7   10 1    
    21    7   22 1    
    22    7   23 1    
    23    8   11 1    
    24    8   24 1    
    25    8   25 1    
    26    9   12 1    
    27    9   26 1    
    28    9   27 1    
    29   10   28 1    
    30   10   29 1    
    31   11   30 1    
    32   11   31 1    
    33   12   15 2    
    34   13   32 1    
    35   13   33 1    
    36   13   34 1    
    37   14   35 1    
    38   14   36 1    
    39   14   37 1    
    40   15   38 1    
    41   15   39 1    
@<TRIPOS>SUBSTRUCTURE
     1 ****        1 TEMP              0 ****  ****    0 ROOT 
@<TRIPOS>NORMAL
@<TRIPOS>FF_PBC
FORCE_FIELD_SETUP_FEATURE Force Field Setup information
v1.0  0 0.000000 0.000000 0.000000 0.000000 0.000000 0.000000 NONE 0 0 0 0 1 0 0 0 0 0 0 0 0
