@<TRIPOS>MOLECULE
MOL002178
   30    31     1     1     0
SMALL
GASTEIGER


@<TRIPOS>ATOM
      1 C          -0.761471    2.053365    1.389548 C.ar      1 <1>         0.079131 
      2 C          -2.018092    2.570904    1.986015 C.ar      1 <1>        -0.029115 
      3 C          -3.288859    2.330102    1.343170 C.ar      1 <1>        -0.028719 
      4 C          -3.342790    1.564371    0.069344 C.ar      1 <1>         0.085941 
      5 C          -2.151133    1.104907   -0.443416 C.ar      1 <1>         0.084190 
      6 C          -0.858157    1.322287    0.200119 C.ar      1 <1>         0.026752 
      7 C          -1.812731    0.328459   -1.683942 C.2       1 <1>         0.297302 
      8 O          -0.494789    0.110711   -1.810669 O.3       1 <1>        -0.303209 
      9 C           0.211378    0.631411   -0.648183 C.3       1 <1>         0.096515 
     10 O          -2.630267   -0.060467   -2.500760 O.2       1 <1>        -0.259102 
     11 C           0.840537   -0.550107    0.133214 C.3       1 <1>        -0.021720 
     12 C           1.897470   -1.293935   -0.727202 C.3       1 <1>        -0.050629 
     13 C           2.521841   -2.484895    0.049744 C.3       1 <1>        -0.055820 
     14 C           3.574771   -3.229593   -0.811735 C.3       1 <1>        -0.065275 
     15 O           0.461929    2.293625    2.014731 O.3       1 <1>        -0.359452 
     16 O          -4.543841    1.315798   -0.595029 O.3       1 <1>        -0.359041 
     17 H          -1.973694    3.132175    2.913132 H         1 <1>         0.064410 
     18 H          -4.199730    2.711089    1.792602 H         1 <1>         0.064421 
     19 H           0.973275    1.357676   -0.973096 H         1 <1>         0.065346 
     20 H           1.315755   -0.175992    1.053845 H         1 <1>         0.029363 
     21 H           0.038205   -1.250043    0.418264 H         1 <1>         0.029363 
     22 H           1.420518   -1.670689   -1.647029 H         1 <1>         0.026610 
     23 H           2.694258   -0.588708   -1.015696 H         1 <1>         0.026610 
     24 H           3.005508   -2.114219    0.968971 H         1 <1>         0.026266 
     25 H           1.727772   -3.193363    0.339360 H         1 <1>         0.026266 
     26 H           4.004051   -4.069911   -0.243404 H         1 <1>         0.022978 
     27 H           3.110152   -3.627591   -1.727378 H         1 <1>         0.022978 
     28 H           4.390402   -2.546978   -1.097010 H         1 <1>         0.022978 
     29 H           1.191484    2.348276    1.408106 H         1 <1>         0.217326 
     30 H          -5.303453    1.680834   -0.155518 H         1 <1>         0.217341 
@<TRIPOS>BOND
     1    1    2 1    
     2    1    6 2    
     3    1   15 1    
     4    2    3 2    
     5    2   17 1    
     6    3    4 1    
     7    3   18 1    
     8    4    5 2    
     9    4   16 1    
    10    5    6 1    
    11    5    7 1    
    12    6    9 1    
    13    7    8 1    
    14    7   10 2    
    15    8    9 1    
    16    9   11 1    
    17    9   19 1    
    18   11   12 1    
    19   11   20 1    
    20   11   21 1    
    21   12   13 1    
    22   12   22 1    
    23   12   23 1    
    24   13   14 1    
    25   13   24 1    
    26   13   25 1    
    27   14   26 1    
    28   14   27 1    
    29   14   28 1    
    30   15   29 1    
    31   16   30 1    
@<TRIPOS>SUBSTRUCTURE
     1 ****        1 TEMP              0 ****  ****    0 ROOT 
@<TRIPOS>NORMAL
@<TRIPOS>FF_PBC
FORCE_FIELD_SETUP_FEATURE Force Field Setup information
v1.0  0 0.000000 0.000000 0.000000 0.000000 0.000000 0.000000 NONE 0 0 0 0 1 0 0 0 0 0 0 0 0
