@<TRIPOS>MOLECULE
MOL001180
   39    40     1     1     0
SMALL
GASTEIGER


@<TRIPOS>ATOM
      1 C          -0.855884    2.672782    1.118239 C.3       1 <1>        -0.031439 
      2 C          -1.488701    1.372737    1.554213 C.2       1 <1>        -0.076221 
      3 C          -0.939299    0.182497    1.273582 C.2       1 <1>        -0.081098 
      4 C           0.343027   -0.001733    0.487846 C.3       1 <1>        -0.013085 
      5 C           0.744843    1.296185   -0.281713 C.3       1 <1>        -0.013345 
      6 C           0.627667    2.482330    0.715550 C.3       1 <1>        -0.042294 
      7 C           0.318286   -1.301845   -0.396920 C.3       1 <1>        -0.031605 
      8 C           0.408628   -0.949942   -1.907768 C.3       1 <1>        -0.045733 
      9 C          -0.557744    0.217471   -2.216853 C.3       1 <1>        -0.031437 
     10 C          -0.041167    1.478999   -1.569368 C.2       1 <1>        -0.072943 
     11 C          -2.783713    1.497572    2.326797 C.3       1 <1>        -0.043778 
     12 C          -0.273357    2.666128   -2.151832 C.2       1 <1>        -0.099165 
     13 C           1.380174   -2.360773    0.056309 C.3       1 <1>        -0.043327 
     14 C           1.560758   -3.513636   -0.972604 C.3       1 <1>        -0.062396 
     15 C           0.985019   -2.985447    1.428717 C.3       1 <1>        -0.062396 
     16 H          -1.442412    3.060570    0.272570 H         1 <1>         0.031008 
     17 H          -0.903731    3.412641    1.933304 H         1 <1>         0.031008 
     18 H          -1.432549   -0.716367    1.643865 H         1 <1>         0.057459 
     19 H           1.104327   -0.116754    1.275071 H         1 <1>         0.035152 
     20 H           1.803315    1.201563   -0.581693 H         1 <1>         0.035136 
     21 H           1.042912    3.414453    0.302456 H         1 <1>         0.027417 
     22 H           1.214723    2.257528    1.621962 H         1 <1>         0.027417 
     23 H          -0.663351   -1.795595   -0.294412 H         1 <1>         0.030917 
     24 H           0.108896   -1.811935   -2.528649 H         1 <1>         0.027122 
     25 H           1.437302   -0.669598   -2.185440 H         1 <1>         0.027122 
     26 H          -0.637084    0.336406   -3.310038 H         1 <1>         0.031008 
     27 H          -1.561835   -0.003311   -1.821943 H         1 <1>         0.031008 
     28 H          -3.509924    2.061536    1.722845 H         1 <1>         0.027436 
     29 H          -2.603435    2.042190    3.265512 H         1 <1>         0.027436 
     30 H          -3.230170    0.523405    2.577215 H         1 <1>         0.027436 
     31 H           0.085897    3.617858   -1.768282 H         1 <1>         0.053449 
     32 H          -0.851972    2.726727   -3.072506 H         1 <1>         0.053449 
     33 H           2.358678   -1.861204    0.158106 H         1 <1>         0.029832 
     34 H           2.236659   -4.285560   -0.574521 H         1 <1>         0.023242 
     35 H           2.005429   -3.150033   -1.911097 H         1 <1>         0.023242 
     36 H           0.589331   -3.981381   -1.192744 H         1 <1>         0.023242 
     37 H           1.765922   -3.679936    1.774234 H         1 <1>         0.023242 
     38 H           0.843807   -2.230826    2.215452 H         1 <1>         0.023242 
     39 H           0.045240   -3.549896    1.327985 H         1 <1>         0.023242 
@<TRIPOS>BOND
     1    1    2 1    
     2    1    6 1    
     3    1   16 1    
     4    1   17 1    
     5    2    3 2    
     6    2   11 1    
     7    3    4 1    
     8    3   18 1    
     9    4    5 1    
    10    4    7 1    
    11    4   19 1    
    12    5    6 1    
    13    5   10 1    
    14    5   20 1    
    15    6   21 1    
    16    6   22 1    
    17    7    8 1    
    18    7   13 1    
    19    7   23 1    
    20    8    9 1    
    21    8   24 1    
    22    8   25 1    
    23    9   10 1    
    24    9   26 1    
    25    9   27 1    
    26   10   12 2    
    27   11   28 1    
    28   11   29 1    
    29   11   30 1    
    30   12   31 1    
    31   12   32 1    
    32   13   14 1    
    33   13   15 1    
    34   13   33 1    
    35   14   34 1    
    36   14   35 1    
    37   14   36 1    
    38   15   37 1    
    39   15   38 1    
    40   15   39 1    
@<TRIPOS>SUBSTRUCTURE
     1 ****        1 TEMP              0 ****  ****    0 ROOT 
@<TRIPOS>NORMAL
@<TRIPOS>FF_PBC
FORCE_FIELD_SETUP_FEATURE Force Field Setup information
v1.0  0 0.000000 0.000000 0.000000 0.000000 0.000000 0.000000 NONE 0 0 0 0 1 0 0 0 0 0 0 0 0
