@<TRIPOS>MOLECULE
MOL002158
   92    97     1     1     0
SMALL
GASTEIGER


@<TRIPOS>ATOM
      1 C           5.392549    3.950831   -0.527629 C.3       1 <1>        -0.040697 
      2 C           4.176203    2.973833   -0.617612 C.3       1 <1>        -0.033781 
      3 C           3.649152    2.596628    0.818622 C.3       1 <1>        -0.001891 
      4 C           4.765859    2.036524    1.743604 C.3       1 <1>         0.062686 
      5 C           6.036434    2.937764    1.711579 C.3       1 <1>        -0.037513 
      6 C           6.525142    3.261943    0.281503 C.3       1 <1>        -0.049212 
      7 C           2.383413    1.727804    0.824826 C.2       1 <1>        -0.062664 
      8 C           2.453994    0.199823    0.972922 C.3       1 <1>        -0.005087 
      9 C           3.808523   -0.297970    1.619299 C.3       1 <1>        -0.042414 
     10 C           5.056533    0.570811    1.312768 C.3       1 <1>        -0.036964 
     11 C           1.201742    2.330071    0.645630 C.2       1 <1>        -0.083627 
     12 C          -0.080366    1.564042    0.499060 C.3       1 <1>        -0.030614 
     13 C          -0.191899    0.452287    1.575957 C.3       1 <1>        -0.025753 
     14 C           1.152974   -0.395552    1.732310 C.3       1 <1>        -0.019373 
     15 C          -1.630478   -0.255676    1.688222 C.3       1 <1>        -0.025444 
     16 C          -1.615261   -1.781600    1.322193 C.3       1 <1>        -0.032978 
     17 C          -0.353371   -2.521021    1.839220 C.3       1 <1>        -0.049096 
     18 C           0.918815   -1.868041    1.258088 C.3       1 <1>        -0.046285 
     19 C          -2.720878    0.429453    0.769144 C.3       1 <1>        -0.044730 
     20 C          -3.888195   -0.511252    0.355740 C.3       1 <1>        -0.025478 
     21 C          -3.350056   -1.661379   -0.547146 C.3       1 <1>         0.068672 
     22 C          -1.868786   -1.986254   -0.198025 C.3       1 <1>        -0.022655 
     23 C           4.318784    2.083770    3.195453 C.2       1 <1>         0.266390 
     24 C           3.047960    3.538766   -1.530918 C.3       1 <1>        -0.061601 
     25 C           1.420812   -0.468579    3.282897 C.3       1 <1>        -0.058491 
     26 C          -2.206986   -0.143502    3.148784 C.3       1 <1>        -0.059026 
     27 O          -4.131735   -2.860261   -0.343425 O.3       1 <1>        -0.308543 
     28 C           5.958123    4.384534   -1.913032 C.3       1 <1>        -0.062153 
     29 C           2.541654   -0.269992   -0.525245 C.3       1 <1>        -0.055323 
     30 C          -5.364063   -2.822399   -0.870676 C.2       1 <1>         0.286855 
     31 C          -6.255787   -3.981437   -0.705550 C.2       1 <1>         0.010501 
     32 O          -5.774477   -1.857241   -1.496191 O.2       1 <1>        -0.259869 
     33 C          -7.063102   -4.470541   -1.657239 C.2       1 <1>        -0.048858 
     34 C          -7.094853   -3.946586   -3.077652 C.ar      1 <1>        -0.022420 
     35 C          -8.395556   -3.819906   -3.778563 C.ar      1 <1>        -0.024783 
     36 C          -8.459289   -3.342743   -5.101885 C.ar      1 <1>         0.073139 
     37 C          -7.209948   -2.955557   -5.805557 C.ar      1 <1>        -0.031903 
     38 C          -5.968835   -3.074993   -5.153831 C.ar      1 <1>        -0.058772 
     39 C          -5.903980   -3.589099   -3.765660 C.ar      1 <1>        -0.054433 
     40 O          -9.701973   -3.241455   -5.731313 O.3       1 <1>        -0.359814 
     41 O           5.157248    1.529957    4.075415 O.3       1 <1>        -0.330836 
     42 O           3.266584    2.594919    3.547918 O.2       1 <1>        -0.264536 
     43 H          -7.736020   -5.294518   -1.415820 H         1 <1>         0.062526 
     44 H          -6.242540   -4.452588    0.276766 H         1 <1>         0.067735 
     45 H           5.083456    4.869672    0.000116 H         1 <1>         0.030089 
     46 H           4.560328    2.096769   -1.150080 H         1 <1>         0.030671 
     47 H           3.380935    3.574286    1.252605 H         1 <1>         0.035871 
     48 H           5.812011    3.897488    2.208052 H         1 <1>         0.027568 
     49 H           6.856042    2.459119    2.273114 H         1 <1>         0.027568 
     50 H           7.396499    3.934106    0.361237 H         1 <1>         0.026823 
     51 H           6.859658    2.344673   -0.228016 H         1 <1>         0.026823 
     52 H           4.022196   -1.342008    1.340736 H         1 <1>         0.027403 
     53 H           3.813004   -0.295108    2.710519 H         1 <1>         0.027403 
     54 H           5.919255    0.188622    1.885923 H         1 <1>         0.027586 
     55 H           5.329618    0.477644    0.254759 H         1 <1>         0.027586 
     56 H           1.139930    3.417326    0.569365 H         1 <1>         0.057198 
     57 H          -0.885704    2.311769    0.612430 H         1 <1>         0.031042 
     58 H          -0.135623    1.168701   -0.522164 H         1 <1>         0.031042 
     59 H          -0.173060    1.146536    2.432797 H         1 <1>         0.031460 
     60 H          -2.452813   -2.307512    1.813965 H         1 <1>         0.030692 
     61 H          -0.395860   -3.574895    1.513371 H         1 <1>         0.026829 
     62 H          -0.322806   -2.544519    2.937428 H         1 <1>         0.026829 
     63 H           1.789272   -2.491471    1.518398 H         1 <1>         0.027096 
     64 H           0.785467   -1.945210    0.175169 H         1 <1>         0.027096 
     65 H          -3.123856    1.335241    1.251936 H         1 <1>         0.027149 
     66 H          -2.346818    0.731984   -0.217106 H         1 <1>         0.027149 
     67 H          -4.657327    0.058454   -0.193163 H         1 <1>         0.029045 
     68 H          -4.383721   -0.934354    1.241309 H         1 <1>         0.029045 
     69 H          -3.359773   -1.372001   -1.615312 H         1 <1>         0.060210 
     70 H          -1.201990   -1.325187   -0.774127 H         1 <1>         0.029312 
     71 H          -1.659652   -3.022552   -0.508952 H         1 <1>         0.029312 
     72 H           2.224033    2.818957   -1.635396 H         1 <1>         0.023268 
     73 H           3.402174    3.723932   -2.554498 H         1 <1>         0.023268 
     74 H           2.658628    4.482399   -1.120256 H         1 <1>         0.023268 
     75 H           2.069374   -1.307537    3.576159 H         1 <1>         0.023542 
     76 H           1.856744    0.477159    3.636003 H         1 <1>         0.023542 
     77 H           0.520292   -0.604957    3.882835 H         1 <1>         0.023542 
     78 H          -3.257828   -0.459076    3.201089 H         1 <1>         0.023525 
     79 H          -1.682666   -0.774480    3.872981 H         1 <1>         0.023525 
     80 H          -2.180719    0.893787    3.516334 H         1 <1>         0.023525 
     81 H           6.903332    4.935522   -1.789320 H         1 <1>         0.023250 
     82 H           5.268476    5.060167   -2.440350 H         1 <1>         0.023250 
     83 H           6.152652    3.504238   -2.544811 H         1 <1>         0.023250 
     84 H           2.798200   -1.334639   -0.626472 H         1 <1>         0.023829 
     85 H           3.325197    0.250627   -1.079240 H         1 <1>         0.023829 
     86 H           1.614844   -0.103005   -1.084002 H         1 <1>         0.023829 
     87 H          -9.313475   -4.095928   -3.271841 H         1 <1>         0.064910 
     88 H          -7.247708   -2.579048   -6.822502 H         1 <1>         0.064320 
     89 H          -5.054507   -2.791456   -5.665988 H         1 <1>         0.061855 
     90 H          -4.935856   -3.694515   -3.289024 H         1 <1>         0.062346 
     91 H          -9.650278   -2.918720   -6.623658 H         1 <1>         0.217314 
     92 H           4.825689    1.586238    4.964799 H         1 <1>         0.220226 
@<TRIPOS>BOND
     1    1    2 1    
     2    1    6 1    
     3    1   28 1    
     4    1   45 1    
     5    2    3 1    
     6    2   24 1    
     7    2   46 1    
     8    3    4 1    
     9    3    7 1    
    10    3   47 1    
    11    4    5 1    
    12    4   10 1    
    13    4   23 1    
    14    5    6 1    
    15    5   48 1    
    16    5   49 1    
    17    6   50 1    
    18    6   51 1    
    19    7    8 1    
    20    7   11 2    
    21    8    9 1    
    22    8   14 1    
    23    8   29 1    
    24    9   10 1    
    25    9   52 1    
    26    9   53 1    
    27   10   54 1    
    28   10   55 1    
    29   11   12 1    
    30   11   56 1    
    31   12   13 1    
    32   12   57 1    
    33   12   58 1    
    34   13   14 1    
    35   13   15 1    
    36   13   59 1    
    37   14   18 1    
    38   14   25 1    
    39   15   16 1    
    40   15   19 1    
    41   15   26 1    
    42   16   17 1    
    43   16   22 1    
    44   16   60 1    
    45   17   18 1    
    46   17   61 1    
    47   17   62 1    
    48   18   63 1    
    49   18   64 1    
    50   19   20 1    
    51   19   65 1    
    52   19   66 1    
    53   20   21 1    
    54   20   67 1    
    55   20   68 1    
    56   21   22 1    
    57   21   27 1    
    58   21   69 1    
    59   22   70 1    
    60   22   71 1    
    61   23   41 1    
    62   23   42 2    
    63   24   72 1    
    64   24   73 1    
    65   24   74 1    
    66   25   75 1    
    67   25   76 1    
    68   25   77 1    
    69   26   78 1    
    70   26   79 1    
    71   26   80 1    
    72   27   30 1    
    73   28   81 1    
    74   28   82 1    
    75   28   83 1    
    76   29   84 1    
    77   29   85 1    
    78   29   86 1    
    79   30   31 1    
    80   30   32 2    
    81   31   33 2    
    82   31   44 1    
    83   33   34 1    
    84   33   43 1    
    85   34   35 1    
    86   34   39 2    
    87   35   36 2    
    88   35   87 1    
    89   36   37 1    
    90   36   40 1    
    91   37   38 2    
    92   37   88 1    
    93   38   39 1    
    94   38   89 1    
    95   39   90 1    
    96   40   91 1    
    97   41   92 1    
@<TRIPOS>SUBSTRUCTURE
     1 ****        1 TEMP              0 ****  ****    0 ROOT 
@<TRIPOS>NORMAL
@<TRIPOS>FF_PBC
FORCE_FIELD_SETUP_FEATURE Force Field Setup information
v1.0  0 0.000000 0.000000 0.000000 0.000000 0.000000 0.000000 NONE 0 0 0 0 1 0 0 0 0 0 0 0 0
