@<TRIPOS>MOLECULE
MOL000305
   38    37     1     1     0
SMALL
GASTEIGER


@<TRIPOS>ATOM
      1 C           6.978647    0.448163    0.000036 C.2       1 <1>         0.259588 
      2 C           5.726641   -0.390274   -0.000117 C.3       1 <1>         0.033006 
      3 C           4.433416    0.469135    0.000078 C.3       1 <1>        -0.044061 
      4 C           3.159599   -0.420116   -0.000094 C.3       1 <1>        -0.052596 
      5 C           1.869286    0.444765    0.000114 C.3       1 <1>        -0.053045 
      6 C           0.591493   -0.438575   -0.000083 C.3       1 <1>        -0.053057 
      7 C          -0.695367    0.431685    0.000128 C.3       1 <1>        -0.053057 
      8 C          -1.976821   -0.446460   -0.000085 C.3       1 <1>        -0.053057 
      9 C          -3.260747    0.428146    0.000125 C.3       1 <1>        -0.053065 
     10 C          -4.544441   -0.446606   -0.000091 C.3       1 <1>        -0.053306 
     11 C          -5.826235    0.430611    0.000123 C.3       1 <1>        -0.055911 
     12 C          -7.108430   -0.442062   -0.000090 C.3       1 <1>        -0.065276 
     13 O           6.950570    1.669149    0.000248 O.2       1 <1>        -0.265177 
     14 O           8.122235   -0.239737   -0.000079 O.3       1 <1>        -0.331267 
     15 H           5.746115   -1.033135   -0.893998 H         1 <1>         0.036600 
     16 H           5.746141   -1.033504    0.893500 H         1 <1>         0.036600 
     17 H           4.430016    1.114843    0.894074 H         1 <1>         0.027004 
     18 H           4.429993    1.115218   -0.893642 H         1 <1>         0.027004 
     19 H           3.165553   -1.065936   -0.893665 H         1 <1>         0.026540 
     20 H           3.165580   -1.066326    0.893202 H         1 <1>         0.026540 
     21 H           1.864781    1.090759    0.893518 H         1 <1>         0.026529 
     22 H           1.864769    1.091169   -0.892986 H         1 <1>         0.026529 
     23 H           0.594751   -1.084455   -0.893581 H         1 <1>         0.026528 
     24 H           0.594763   -1.084873    0.893120 H         1 <1>         0.026528 
     25 H          -0.697427    1.077656    0.893548 H         1 <1>         0.026528 
     26 H          -0.697427    1.078087   -0.892974 H         1 <1>         0.026528 
     27 H          -1.975873   -1.092308   -0.893567 H         1 <1>         0.026528 
     28 H          -1.975874   -1.092743    0.893087 H         1 <1>         0.026528 
     29 H          -3.261150    1.074107    0.893554 H         1 <1>         0.026528 
     30 H          -3.261147    1.074542   -0.892982 H         1 <1>         0.026528 
     31 H          -4.545914   -1.092439   -0.893589 H         1 <1>         0.026520 
     32 H          -4.545916   -1.092879    0.893097 H         1 <1>         0.026520 
     33 H          -5.831256    1.076945    0.893732 H         1 <1>         0.026265 
     34 H          -5.831255    1.077381   -0.893166 H         1 <1>         0.026265 
     35 H          -8.003707    0.199772    0.000068 H         1 <1>         0.022978 
     36 H          -7.137301   -1.082700   -0.895289 H         1 <1>         0.022978 
     37 H          -7.137302   -1.083137    0.894798 H         1 <1>         0.022978 
     38 H           8.879341    0.335832    0.000026 H         1 <1>         0.220208 
@<TRIPOS>BOND
     1    1    2 1    
     2    1   13 2    
     3    1   14 1    
     4    2    3 1    
     5    2   15 1    
     6    2   16 1    
     7    3    4 1    
     8    3   17 1    
     9    3   18 1    
    10    4    5 1    
    11    4   19 1    
    12    4   20 1    
    13    5    6 1    
    14    5   21 1    
    15    5   22 1    
    16    6    7 1    
    17    6   23 1    
    18    6   24 1    
    19    7    8 1    
    20    7   25 1    
    21    7   26 1    
    22    8    9 1    
    23    8   27 1    
    24    8   28 1    
    25    9   10 1    
    26    9   29 1    
    27    9   30 1    
    28   10   11 1    
    29   10   31 1    
    30   10   32 1    
    31   11   12 1    
    32   11   33 1    
    33   11   34 1    
    34   12   35 1    
    35   12   36 1    
    36   12   37 1    
    37   14   38 1    
@<TRIPOS>SUBSTRUCTURE
     1 ****        1 TEMP              0 ****  ****    0 ROOT 
@<TRIPOS>NORMAL
@<TRIPOS>FF_PBC
FORCE_FIELD_SETUP_FEATURE Force Field Setup information
v1.0  0 0.000000 0.000000 0.000000 0.000000 0.000000 0.000000 NONE 0 0 0 0 1 0 0 0 0 0 0 0 0
