@<TRIPOS>MOLECULE
MOL004661
   36    35     1     1     0
SMALL
GASTEIGER


@<TRIPOS>ATOM
      1 O           2.781345    2.261254   -0.945281 O.3       1 <1>        -0.315394 
      2 O           4.967548    2.160401   -1.195732 O.2       1 <1>        -0.265283 
      3 C          -1.036758    1.964239   -0.680961 C.3       1 <1>        -0.041509 
      4 C          -1.294484    0.970836    0.498948 C.3       1 <1>        -0.046940 
      5 C           0.404038    2.567221   -0.684850 C.3       1 <1>        -0.026274 
      6 C          -1.070897   -0.523470    0.121835 C.3       1 <1>        -0.034283 
      7 C          -2.059772    3.137093   -0.628004 C.3       1 <1>        -0.062334 
      8 C           1.551018    1.528849   -0.766742 C.3       1 <1>         0.057295 
      9 C          -1.309672   -1.448411    1.294320 C.2       1 <1>        -0.085278 
     10 C          -1.336697   -2.789828    1.218497 C.2       1 <1>        -0.079617 
     11 C          -1.600593   -3.639603    2.443787 C.3       1 <1>        -0.044050 
     12 C          -1.114496   -3.568198   -0.061274 C.3       1 <1>        -0.044050 
     13 C           3.921160    1.550691   -1.048774 C.2       1 <1>         0.259041 
     14 C           3.943526    0.039637   -0.990208 C.3       1 <1>         0.021433 
     15 H          -1.202641    1.441496   -1.638989 H         1 <1>         0.029893 
     16 H          -0.669267    1.251408    1.361482 H         1 <1>         0.027080 
     17 H          -2.345471    1.039835    0.825572 H         1 <1>         0.027080 
     18 H           0.505484    3.231263   -1.559622 H         1 <1>         0.029007 
     19 H           0.555039    3.181408    0.218004 H         1 <1>         0.029007 
     20 H          -1.775867   -0.782837   -0.684750 H         1 <1>         0.030748 
     21 H          -0.048779   -0.692936   -0.240755 H         1 <1>         0.030748 
     22 H          -1.889322    3.845810   -1.453613 H         1 <1>         0.023243 
     23 H          -3.091147    2.760697   -0.717505 H         1 <1>         0.023243 
     24 H          -1.967268    3.681118    0.324789 H         1 <1>         0.023243 
     25 H           1.353949    0.862967   -1.621900 H         1 <1>         0.056588 
     26 H           1.580686    0.958881    0.174358 H         1 <1>         0.056588 
     27 H          -1.469785   -0.979082    2.265658 H         1 <1>         0.057145 
     28 H          -1.800614   -3.046743    3.349138 H         1 <1>         0.027427 
     29 H          -2.473870   -4.283462    2.260207 H         1 <1>         0.027427 
     30 H          -0.727292   -4.278993    2.642079 H         1 <1>         0.027427 
     31 H          -0.785762   -2.956692   -0.912155 H         1 <1>         0.027427 
     32 H          -2.052701   -4.069699   -0.341904 H         1 <1>         0.027427 
     33 H          -0.344930   -4.336282    0.107635 H         1 <1>         0.027427 
     34 H           3.360297   -0.397686   -1.812845 H         1 <1>         0.033023 
     35 H           3.563082   -0.327633   -0.026619 H         1 <1>         0.033023 
     36 H           4.980815   -0.313556   -1.093926 H         1 <1>         0.033023 
@<TRIPOS>BOND
     1    8    1 1    
     2    1   13 1    
     3   13    2 2    
     4    3    4 1    
     5    5    3 1    
     6    3    7 1    
     7    3   15 1    
     8    4    6 1    
     9    4   16 1    
    10    4   17 1    
    11    5    8 1    
    12    5   18 1    
    13    5   19 1    
    14    6    9 1    
    15    6   20 1    
    16    6   21 1    
    17    7   22 1    
    18    7   23 1    
    19    7   24 1    
    20    8   25 1    
    21    8   26 1    
    22    9   10 2    
    23    9   27 1    
    24   10   11 1    
    25   10   12 1    
    26   11   28 1    
    27   11   29 1    
    28   11   30 1    
    29   12   31 1    
    30   12   32 1    
    31   12   33 1    
    32   13   14 1    
    33   14   34 1    
    34   14   35 1    
    35   14   36 1    
@<TRIPOS>SUBSTRUCTURE
     1 ****        3 TEMP              0 ****  ****    0 ROOT 
@<TRIPOS>NORMAL
@<TRIPOS>FF_PBC
FORCE_FIELD_SETUP_FEATURE Force Field Setup information
v1.0  0 0.000000 0.000000 0.000000 0.000000 0.000000 0.000000 NONE 0 0 0 0 1 0 0 0 0 0 0 0 0
