@<TRIPOS>MOLECULE
MOL002472
   37    36     1     1     0
SMALL
GASTEIGER


@<TRIPOS>ATOM
      1 C           0.056818    1.573348   -0.000027 C.2       1 <1>        -0.074085 
      2 C           1.396610    1.469642    0.000068 C.2       1 <1>        -0.059103 
      3 C          -0.832092    0.340009   -0.000031 C.3       1 <1>        -0.028491 
      4 C          -0.614728    2.932389   -0.000132 C.3       1 <1>        -0.043707 
      5 C           2.149795    0.162026    0.000164 C.3       1 <1>         0.075494 
      6 C          -2.372235    0.558371    0.000015 C.3       1 <1>        -0.030847 
      7 O           3.563484    0.450649   -0.000010 O.3       1 <1>        -0.311076 
      8 C          -3.136962   -0.746834    0.000037 C.2       1 <1>        -0.084989 
      9 C           4.343815   -0.640034    0.000076 C.2       1 <1>         0.262183 
     10 C          -4.477165   -0.847668   -0.000064 C.2       1 <1>        -0.079608 
     11 C           5.822758   -0.352855   -0.000083 C.3       1 <1>         0.030382 
     12 O           3.904577   -1.779792    0.000268 O.2       1 <1>        -0.264975 
     13 C          -5.162445   -2.198049   -0.000043 C.3       1 <1>        -0.044049 
     14 C          -5.414657    0.341852   -0.000204 C.3       1 <1>        -0.044049 
     15 C           6.682478   -1.643228    0.000094 C.3       1 <1>        -0.056253 
     16 H           2.010476    2.370924    0.000080 H         1 <1>         0.059434 
     17 H          -0.585001   -0.255138    0.893480 H         1 <1>         0.031286 
     18 H          -0.585053   -0.255095   -0.893584 H         1 <1>         0.031286 
     19 H           0.111078    3.759583   -0.000137 H         1 <1>         0.027437 
     20 H          -1.239405    3.048850   -0.897283 H         1 <1>         0.027437 
     21 H          -1.239502    3.048946    0.896939 H         1 <1>         0.027437 
     22 H           1.881987   -0.412685    0.901690 H         1 <1>         0.061016 
     23 H           1.881823   -0.412941   -0.901151 H         1 <1>         0.061016 
     24 H          -2.660881    1.121971   -0.900555 H         1 <1>         0.031044 
     25 H          -2.660846    1.121968    0.900599 H         1 <1>         0.031044 
     26 H          -2.546350   -1.663712    0.000146 H         1 <1>         0.057155 
     27 H           6.058416    0.246353   -0.893899 H         1 <1>         0.036335 
     28 H           6.058542    0.246681    0.893480 H         1 <1>         0.036335 
     29 H          -4.457641   -3.043254    0.000038 H         1 <1>         0.027427 
     30 H          -5.798155   -2.286148   -0.893885 H         1 <1>         0.027427 
     31 H          -5.798265   -2.286069    0.893727 H         1 <1>         0.027427 
     32 H          -4.911849    1.318012   -0.000101 H         1 <1>         0.027427 
     33 H          -6.055592    0.295617   -0.893344 H         1 <1>         0.027427 
     34 H          -6.055887    0.295598    0.892723 H         1 <1>         0.027427 
     35 H           7.753833   -1.387261   -0.000023 H         1 <1>         0.023451 
     36 H           6.464420   -2.246001    0.895723 H         1 <1>         0.023451 
     37 H           6.464302   -2.246325   -0.895289 H         1 <1>         0.023451 
@<TRIPOS>BOND
     1    1    2 2    
     2    1    3 1    
     3    1    4 1    
     4    2    5 1    
     5    2   16 1    
     6    3    6 1    
     7    3   17 1    
     8    3   18 1    
     9    4   19 1    
    10    4   20 1    
    11    4   21 1    
    12    5    7 1    
    13    5   22 1    
    14    5   23 1    
    15    6    8 1    
    16    6   24 1    
    17    6   25 1    
    18    7    9 1    
    19    8   10 2    
    20    8   26 1    
    21    9   11 1    
    22    9   12 2    
    23   10   13 1    
    24   10   14 1    
    25   11   15 1    
    26   11   27 1    
    27   11   28 1    
    28   13   29 1    
    29   13   30 1    
    30   13   31 1    
    31   14   32 1    
    32   14   33 1    
    33   14   34 1    
    34   15   35 1    
    35   15   36 1    
    36   15   37 1    
@<TRIPOS>SUBSTRUCTURE
     1 ****        1 TEMP              0 ****  ****    0 ROOT 
@<TRIPOS>NORMAL
@<TRIPOS>FF_PBC
FORCE_FIELD_SETUP_FEATURE Force Field Setup information
v1.0  0 0.000000 0.000000 0.000000 0.000000 0.000000 0.000000 NONE 0 0 0 0 1 0 0 0 0 0 0 0 0
