@<TRIPOS>MOLECULE
MOL002925
   31    33     1     1     0
SMALL
GASTEIGER


@<TRIPOS>ATOM
      1 C           0.711159   -0.083641   -0.138678 C.2       1 <1>         0.098803 
      2 C           1.223442    1.105971   -0.484222 C.2       1 <1>         0.017086 
      3 C           0.385014    2.309116   -0.521483 C.2       1 <1>         0.193511 
      4 O           0.870394    3.393069   -0.802106 O.2       1 <1>        -0.287017 
      5 C          -1.079191    2.140085   -0.205781 C.ar      1 <1>         0.081945 
      6 C          -2.046627    3.264096   -0.242268 C.ar      1 <1>         0.088313 
      7 C          -3.405973    3.010081    0.058150 C.ar      1 <1>        -0.001303 
      8 C          -3.860830    1.644228    0.407745 C.ar      1 <1>         0.077519 
      9 C          -2.921853    0.585603    0.443285 C.ar      1 <1>        -0.000531 
     10 C          -1.498612    0.843411    0.128868 C.ar      1 <1>         0.098807 
     11 O          -0.589489   -0.217505    0.169124 O.3       1 <1>        -0.307543 
     12 C           1.564954   -1.333436   -0.086458 C.ar      1 <1>         0.064908 
     13 C           0.968605   -2.615973   -0.540774 C.ar      1 <1>         0.084666 
     14 C           1.736897   -3.802186   -0.495000 C.ar      1 <1>        -0.031113 
     15 C           3.134056   -3.769247   -0.005284 C.ar      1 <1>        -0.056859 
     16 C           3.698992   -2.562084    0.419809 C.ar      1 <1>        -0.031113 
     17 C           2.903500   -1.307526    0.391521 C.ar      1 <1>         0.084666 
     18 O           3.458140   -0.107290    0.842561 O.3       1 <1>        -0.359077 
     19 O          -0.346869   -2.634012   -1.015390 O.3       1 <1>        -0.359077 
     20 O          -5.211211    1.430987    0.696430 O.3       1 <1>        -0.359667 
     21 O          -1.606250    4.548996   -0.571612 O.3       1 <1>        -0.358955 
     22 H           2.269441    1.228237   -0.759669 H         1 <1>         0.068221 
     23 H          -4.136598    3.810586    0.037312 H         1 <1>         0.066923 
     24 H          -3.225917   -0.423756    0.698498 H         1 <1>         0.066947 
     25 H           1.313600   -4.746637   -0.820387 H         1 <1>         0.064342 
     26 H           3.718612   -4.684210    0.021237 H         1 <1>         0.061916 
     27 H           4.724754   -2.549958    0.772575 H         1 <1>         0.064342 
     28 H           4.362282   -0.181822    1.126570 H         1 <1>         0.217340 
     29 H          -0.710745   -3.502820   -1.141774 H         1 <1>         0.217340 
     30 H          -5.440786    0.521908    0.854448 H         1 <1>         0.217316 
     31 H          -2.280329    5.219154   -0.553470 H         1 <1>         0.217342 
@<TRIPOS>BOND
     1    1    2 2    
     2    1   11 1    
     3    1   12 1    
     4    2    3 1    
     5    2   22 1    
     6    3    4 2    
     7    3    5 1    
     8    5    6 1    
     9    5   10 2    
    10    6    7 2    
    11    6   21 1    
    12    7    8 1    
    13    7   23 1    
    14    8    9 2    
    15    8   20 1    
    16    9   10 1    
    17    9   24 1    
    18   10   11 1    
    19   12   13 1    
    20   12   17 2    
    21   13   14 2    
    22   13   19 1    
    23   14   15 1    
    24   14   25 1    
    25   15   16 2    
    26   15   26 1    
    27   16   17 1    
    28   16   27 1    
    29   17   18 1    
    30   18   28 1    
    31   19   29 1    
    32   20   30 1    
    33   21   31 1    
@<TRIPOS>SUBSTRUCTURE
     1 ****        1 TEMP              0 ****  ****    0 ROOT 
@<TRIPOS>NORMAL
@<TRIPOS>FF_PBC
FORCE_FIELD_SETUP_FEATURE Force Field Setup information
v1.0  0 0.000000 0.000000 0.000000 0.000000 0.000000 0.000000 NONE 0 0 0 0 1 0 0 0 0 0 0 0 0
