@<TRIPOS>MOLECULE
MOL004886
  119   125     1     1     0
SMALL
GASTEIGER


@<TRIPOS>ATOM
      1 C          -7.268053   -4.717219    1.923181 C.3       1 <1>        -0.037508 
      2 C          -5.865770   -5.375590    2.029361 C.3       1 <1>        -0.042931 
      3 C          -4.787308   -4.816297    1.039227 C.3       1 <1>        -0.010415 
      4 C          -4.856353   -3.294359    0.950999 C.2       1 <1>        -0.058942 
      5 C          -6.269056   -2.749251    0.797417 C.3       1 <1>        -0.016210 
      6 C          -7.183176   -3.168423    1.979605 C.3       1 <1>         0.056847 
      7 C          -3.391153   -5.269694    1.560773 C.3       1 <1>        -0.043091 
      8 C          -2.226775   -4.547888    0.835969 C.3       1 <1>        -0.042314 
      9 C          -2.338493   -2.986594    0.944874 C.3       1 <1>        -0.001120 
     10 C          -3.776157   -2.492140    0.978562 C.2       1 <1>        -0.041412 
     11 C          -1.683959   -2.222365   -0.300139 C.3       1 <1>        -0.015931 
     12 C          -1.583313   -0.692043    0.038050 C.3       1 <1>        -0.010743 
     13 C          -2.908134   -0.195452    0.579081 C.2       1 <1>        -0.079573 
     14 C          -3.873547   -1.009502    1.023122 C.2       1 <1>        -0.061683 
     15 C          -0.238289   -2.728078   -0.615002 C.3       1 <1>        -0.045985 
     16 C           0.572181   -1.827403   -1.605283 C.3       1 <1>        -0.048590 
     17 C           0.663381   -0.347440   -1.097650 C.3       1 <1>        -0.027555 
     18 C          -0.778275    0.267217   -0.931045 C.3       1 <1>        -0.021809 
     19 C           1.756250    0.581890   -1.769286 C.3       1 <1>        -0.005220 
     20 C           1.829349    1.926494   -0.961350 C.3       1 <1>         0.067175 
     21 C           0.439949    2.614907   -0.888573 C.3       1 <1>        -0.025461 
     22 C          -0.607149    1.665505   -0.237736 C.3       1 <1>        -0.044439 
     23 O           2.224501    4.864453   -1.799730 O.3       1 <1>        -0.332678 
     24 C           2.263393    6.287624   -1.559198 C.3       1 <1>         0.174377 
     25 C           3.712665    6.824135   -1.617276 C.3       1 <1>         0.119040 
     26 C           4.583401    6.043692   -0.608420 C.3       1 <1>         0.114864 
     27 C           4.510602    4.529328   -0.919550 C.3       1 <1>         0.140651 
     28 C           3.026419    4.068505   -0.894964 C.3       1 <1>         0.189107 
     29 C           7.060448    0.532051    0.485220 C.3       1 <1>         0.114497 
     30 C           5.926095    0.046739    1.441233 C.3       1 <1>         0.119030 
     31 C           4.884518    1.176262    1.715237 C.3       1 <1>         0.174377 
     32 O           4.517085    1.788727    0.466126 O.3       1 <1>        -0.332684 
     33 C           5.596822    2.480470   -0.187569 C.3       1 <1>         0.189056 
     34 C           7.025308    2.073504    0.285442 C.3       1 <1>         0.134152 
     35 C          -1.764267   -2.602265    2.361297 C.3       1 <1>        -0.055018 
     36 H          -0.952719   -0.653706    0.930842 H         1 <1>         0.035395 
     37 H           1.070833   -0.460511   -0.076370 H         1 <1>         0.031220 
     38 C          -6.548282   -2.657871    3.314086 C.3       1 <1>        -0.050202 
     39 C          -1.553000    0.501677   -2.271640 C.3       1 <1>        -0.058736 
     40 C           3.165544   -0.090820   -1.671956 C.3       1 <1>        -0.057181 
     41 C           1.543515    0.866611   -3.289054 C.3       1 <1>        -0.057181 
     42 O           2.904965    2.752192   -1.477168 O.3       1 <1>        -0.344868 
     43 H           2.709953    4.116334    0.161161 H         1 <1>         0.093773 
     44 O           5.417147    3.896040    0.019308 O.3       1 <1>        -0.337745 
     45 O           3.721661    8.227811   -1.298769 O.3       1 <1>        -0.386033 
     46 C          -5.028715   -5.429128   -0.372055 C.3       1 <1>        -0.055823 
     47 C          -2.571423   -2.449276   -1.577460 C.3       1 <1>        -0.058208 
     48 O           5.937878    6.517306   -0.726027 O.3       1 <1>        -0.386378 
     49 H           5.554378    2.224959   -1.261417 H         1 <1>         0.093767 
     50 O           5.349690   -1.135874    0.841001 O.3       1 <1>        -0.386033 
     51 O           7.960852    2.513812   -0.722541 O.3       1 <1>        -0.384104 
     52 O           8.326468    0.074692    1.012756 O.3       1 <1>        -0.386388 
     53 C           3.630115    0.634348    2.386326 C.2       1 <1>         0.291467 
     54 O           3.097849   -0.389136    1.981335 O.2       1 <1>        -0.262180 
     55 O           3.064084    1.259710    3.427593 O.3       1 <1>        -0.329249 
     56 C          -8.605741   -2.600298    1.955746 C.2       1 <1>         0.265846 
     57 O          -9.237464   -2.505029    2.991895 O.2       1 <1>        -0.264556 
     58 O          -9.203082   -2.171000    0.833811 O.3       1 <1>        -0.330850 
     59 C           1.512105    6.983794   -2.674136 C.2       1 <1>         0.291467 
     60 O           0.932586    8.042384   -2.487987 O.2       1 <1>        -0.262180 
     61 O           1.498629    6.409755   -3.884992 O.3       1 <1>        -0.329249 
     62 H          -7.896066   -5.070473    2.756942 H         1 <1>         0.027568 
     63 H          -7.764266   -5.025399    0.989906 H         1 <1>         0.027568 
     64 H          -5.969118   -6.464070    1.890563 H         1 <1>         0.027386 
     65 H          -5.545176   -5.224381    3.069717 H         1 <1>         0.027386 
     66 H          -6.372236   -1.666693    0.675569 H         1 <1>         0.032046 
     67 H          -6.637657   -3.165481   -0.148034 H         1 <1>         0.032046 
     68 H          -3.283218   -6.362433    1.451128 H         1 <1>         0.027384 
     69 H          -3.317061   -5.064882    2.635509 H         1 <1>         0.027384 
     70 H          -1.275946   -4.886652    1.282411 H         1 <1>         0.027410 
     71 H          -2.219740   -4.919488   -0.190476 H         1 <1>         0.027410 
     72 H          -3.100603    0.871013    0.663120 H         1 <1>         0.057525 
     73 H          -4.739061   -0.520656    1.461103 H         1 <1>         0.061744 
     74 H          -0.274915   -3.743449   -1.044375 H         1 <1>         0.027105 
     75 H           0.335515   -2.798114    0.322529 H         1 <1>         0.027105 
     76 H           1.569543   -2.290271   -1.648555 H         1 <1>         0.026846 
     77 H           0.177103   -1.903474   -2.628623 H         1 <1>         0.026846 
     78 H           2.097452    1.682222    0.079200 H         1 <1>         0.060224 
     79 H           0.140128    2.972576   -1.880068 H         1 <1>         0.029047 
     80 H           0.484763    3.511489   -0.248170 H         1 <1>         0.029047 
     81 H          -1.556973    2.222116   -0.236594 H         1 <1>         0.027158 
     82 H          -0.294293    1.533168    0.810964 H         1 <1>         0.027158 
     83 H           1.796254    6.529783   -0.592028 H         1 <1>         0.072940 
     84 H           4.118236    6.660213   -2.631611 H         1 <1>         0.065129 
     85 H           4.208177    6.234445    0.411456 H         1 <1>         0.064781 
     86 H           4.885442    4.391592   -1.944597 H         1 <1>         0.067477 
     87 H           6.899153    0.077853   -0.512031 H         1 <1>         0.064771 
     88 H           6.369331   -0.253054    2.408688 H         1 <1>         0.065129 
     89 H           5.339253    1.922938    2.380899 H         1 <1>         0.072940 
     90 H           7.264526    2.583754    1.236853 H         1 <1>         0.067096 
     91 H          -0.680437   -2.768033    2.414050 H         1 <1>         0.023838 
     92 H          -2.207782   -3.213375    3.155073 H         1 <1>         0.023838 
     93 H          -1.973787   -1.568434    2.679295 H         1 <1>         0.023838 
     94 H          -7.059762   -3.096454    4.183718 H         1 <1>         0.023996 
     95 H          -6.652577   -1.562096    3.376572 H         1 <1>         0.023996 
     96 H          -5.478451   -2.894031    3.410603 H         1 <1>         0.023996 
     97 H          -2.623305    0.280798   -2.153073 H         1 <1>         0.023534 
     98 H          -1.521222    1.540917   -2.614617 H         1 <1>         0.023534 
     99 H          -1.167784   -0.092467   -3.105913 H         1 <1>         0.023534 
    100 H           3.959644    0.603728   -1.973895 H         1 <1>         0.023587 
    101 H           3.371754   -0.410059   -0.642039 H         1 <1>         0.023587 
    102 H           3.258960   -0.961250   -2.334131 H         1 <1>         0.023587 
    103 H           1.428274   -0.078775   -3.834923 H         1 <1>         0.023587 
    104 H           0.673658    1.489663   -3.515631 H         1 <1>         0.023587 
    105 H           2.421045    1.395114   -3.696429 H         1 <1>         0.023587 
    106 H           4.605249    8.586433   -1.318898 H         1 <1>         0.210020 
    107 H          -6.063201   -5.304136   -0.709285 H         1 <1>         0.023812 
    108 H          -4.822814   -6.508942   -0.374314 H         1 <1>         0.023812 
    109 H          -4.382735   -4.960548   -1.119770 H         1 <1>         0.023812 
    110 H          -2.129499   -2.041958   -2.484896 H         1 <1>         0.023552 
    111 H          -3.569630   -2.002984   -1.479531 H         1 <1>         0.023552 
    112 H          -2.716932   -3.503501   -1.819604 H         1 <1>         0.023552 
    113 H           6.527126    6.041353   -0.146715 H         1 <1>         0.210005 
    114 H           4.616018   -1.504331    1.328508 H         1 <1>         0.210020 
    115 H           8.874488    2.407054   -0.480334 H         1 <1>         0.210110 
    116 H           9.069667    0.222158    0.436708 H         1 <1>         0.210005 
    117 H           3.495120    2.055710    3.707223 H         1 <1>         0.220293 
    118 H          -8.713139   -2.216093    0.026225 H         1 <1>         0.220226 
    119 H           1.941714    5.566538   -3.900963 H         1 <1>         0.220293 
@<TRIPOS>BOND
     1    2    1 1    
     2    6    1 1    
     3    1   62 1    
     4    1   63 1    
     5    3    2 1    
     6    2   64 1    
     7    2   65 1    
     8    4    3 1    
     9    7    3 1    
    10    3   46 1    
    11    4    5 1    
    12   10    4 2    
    13    5    6 1    
    14    5   66 1    
    15    5   67 1    
    16    6   38 1    
    17    6   56 1    
    18    8    7 1    
    19    7   68 1    
    20    7   69 1    
    21    9    8 1    
    22    8   70 1    
    23    8   71 1    
    24    9   10 1    
    25   11    9 1    
    26    9   35 1    
    27   14   10 1    
    28   12   11 1    
    29   15   11 1    
    30   11   47 1    
    31   12   13 1    
    32   18   12 1    
    33   12   36 1    
    34   13   14 2    
    35   13   72 1    
    36   14   73 1    
    37   16   15 1    
    38   15   74 1    
    39   15   75 1    
    40   17   16 1    
    41   16   76 1    
    42   16   77 1    
    43   17   18 1    
    44   19   17 1    
    45   17   37 1    
    46   22   18 1    
    47   18   39 1    
    48   20   19 1    
    49   19   40 1    
    50   19   41 1    
    51   20   21 1    
    52   42   20 1    
    53   20   78 1    
    54   21   22 1    
    55   21   79 1    
    56   21   80 1    
    57   22   81 1    
    58   22   82 1    
    59   23   24 1    
    60   28   23 1    
    61   25   24 1    
    62   24   59 1    
    63   24   83 1    
    64   26   25 1    
    65   25   45 1    
    66   25   84 1    
    67   27   26 1    
    68   26   48 1    
    69   26   85 1    
    70   27   28 1    
    71   44   27 1    
    72   27   86 1    
    73   28   42 1    
    74   28   43 1    
    75   29   30 1    
    76   34   29 1    
    77   29   52 1    
    78   29   87 1    
    79   31   30 1    
    80   30   50 1    
    81   30   88 1    
    82   32   31 1    
    83   31   53 1    
    84   31   89 1    
    85   33   32 1    
    86   33   34 1    
    87   33   44 1    
    88   33   49 1    
    89   34   51 1    
    90   34   90 1    
    91   35   91 1    
    92   35   92 1    
    93   35   93 1    
    94   38   94 1    
    95   38   95 1    
    96   38   96 1    
    97   39   97 1    
    98   39   98 1    
    99   39   99 1    
   100   40  100 1    
   101   40  101 1    
   102   40  102 1    
   103   41  103 1    
   104   41  104 1    
   105   41  105 1    
   106   45  106 1    
   107   46  107 1    
   108   46  108 1    
   109   46  109 1    
   110   47  110 1    
   111   47  111 1    
   112   47  112 1    
   113   48  113 1    
   114   50  114 1    
   115   51  115 1    
   116   52  116 1    
   117   53   54 2    
   118   53   55 1    
   119   55  117 1    
   120   56   57 2    
   121   56   58 1    
   122   58  118 1    
   123   59   60 2    
   124   59   61 1    
   125   61  119 1    
@<TRIPOS>SUBSTRUCTURE
     1 ****       29 TEMP              0 ****  ****    0 ROOT 
@<TRIPOS>NORMAL
@<TRIPOS>FF_PBC
FORCE_FIELD_SETUP_FEATURE Force Field Setup information
v1.0  0 0.000000 0.000000 0.000000 0.000000 0.000000 0.000000 NONE 0 0 0 0 1 0 0 0 0 0 0 0 0
