@<TRIPOS>MOLECULE
MOL001917
   30    31     1     1     0
SMALL
GASTEIGER


@<TRIPOS>ATOM
      1 O           2.196030    1.021434   -0.679125 O.3       1 <1>        -0.311272 
      2 C           0.799126    0.702378   -0.745281 C.3       1 <1>         0.074349 
      3 C           0.710853   -0.845169   -0.780746 C.3       1 <1>        -0.000044 
      4 C          -0.561826   -1.382291   -0.061336 C.3       1 <1>        -0.018242 
      5 C          -1.734043   -0.414368   -0.357061 C.3       1 <1>         0.084035 
      6 C          -1.487223    0.943579    0.386486 C.3       1 <1>         0.091396 
      7 C           0.036829    1.279895    0.469473 C.3       1 <1>         0.005411 
      8 C           2.896442   -0.075356   -0.382534 C.2       1 <1>         0.265624 
      9 C           2.083779   -1.333341   -0.241874 C.3       1 <1>         0.047212 
     10 O          -1.814110   -0.307180   -1.793466 O.3       1 <1>        -0.388951 
     11 O          -1.986641    0.771120    1.728492 O.3       1 <1>        -0.386209 
     12 C          -2.285372    2.101300   -0.278806 C.3       1 <1>        -0.033554 
     13 O           4.108816   -0.052808   -0.251624 O.2       1 <1>        -0.264655 
     14 C           2.145472   -1.830532    1.227677 C.3       1 <1>        -0.053026 
     15 H           0.653257   -1.123412   -1.849548 H         1 <1>         0.033413 
     16 H           0.385378    1.168152   -1.656424 H         1 <1>         0.060586 
     17 H          -0.790222   -2.396709   -0.427622 H         1 <1>         0.029465 
     18 H          -0.458832   -1.434396    1.032061 H         1 <1>         0.029465 
     19 H          -2.672111   -0.862084    0.019399 H         1 <1>         0.062182 
     20 H           0.198941    2.367798    0.526429 H         1 <1>         0.031891 
     21 H           0.470113    0.846772    1.381915 H         1 <1>         0.031891 
     22 H           2.504613   -2.119286   -0.892552 H         1 <1>         0.040272 
     23 H          -2.589162    0.145594   -2.109512 H         1 <1>         0.209901 
     24 H          -1.882124    1.541958    2.277446 H         1 <1>         0.210260 
     25 H          -2.205127    3.022032    0.318990 H         1 <1>         0.025806 
     26 H          -3.350278    1.831487   -0.346762 H         1 <1>         0.025806 
     27 H          -1.901979    2.320113   -1.286426 H         1 <1>         0.025806 
     28 H           3.188870   -2.069800    1.486934 H         1 <1>         0.023727 
     29 H           1.549668   -2.748121    1.349473 H         1 <1>         0.023727 
     30 H           1.790864   -1.068856    1.936021 H         1 <1>         0.023727 
@<TRIPOS>BOND
     1    1    2 1    
     2    1    8 1    
     3    2    3 1    
     4    2    7 1    
     5    2   16 1    
     6    3    4 1    
     7    3    9 1    
     8    3   15 1    
     9    4    5 1    
    10    4   17 1    
    11    4   18 1    
    12    5    6 1    
    13    5   10 1    
    14    5   19 1    
    15    6    7 1    
    16    6   11 1    
    17    6   12 1    
    18    7   20 1    
    19    7   21 1    
    20    8    9 1    
    21    8   13 2    
    22    9   14 1    
    23    9   22 1    
    24   10   23 1    
    25   11   24 1    
    26   12   25 1    
    27   12   26 1    
    28   12   27 1    
    29   14   28 1    
    30   14   29 1    
    31   14   30 1    
@<TRIPOS>SUBSTRUCTURE
     1 ****        1 TEMP              0 ****  ****    0 ROOT 
@<TRIPOS>NORMAL
@<TRIPOS>FF_PBC
FORCE_FIELD_SETUP_FEATURE Force Field Setup information
v1.0  0 0.000000 0.000000 0.000000 0.000000 0.000000 0.000000 NONE 0 0 0 0 1 0 0 0 0 0 0 0 0
