@<TRIPOS>MOLECULE
MOL004828
   43    45     1     1     0
SMALL
GASTEIGER


@<TRIPOS>ATOM
      1 C          -2.906459    2.422105   -0.114056 C.ar      1 <1>         0.080983 
      2 C          -2.474398    3.837145   -0.081220 C.ar      1 <1>        -0.001024 
      3 C          -1.111152    4.156704   -0.020657 C.ar      1 <1>         0.088419 
      4 C          -0.120933    3.054116    0.007954 C.ar      1 <1>         0.084831 
      5 C          -0.518956    1.713382   -0.065392 C.ar      1 <1>         0.102462 
      6 C          -1.966513    1.375254   -0.128162 C.ar      1 <1>         0.017349 
      7 C           1.357459    3.305727    0.130423 C.2       1 <1>         0.223075 
      8 C           2.260917    2.146233    0.234790 C.2       1 <1>         0.151806 
      9 C           1.762873    0.902628    0.108247 C.2       1 <1>         0.123631 
     10 O           0.441140    0.699238   -0.061708 O.3       1 <1>        -0.304849 
     11 C           2.600068   -0.363402    0.157876 C.ar      1 <1>         0.008140 
     12 O           1.823671    4.435901    0.156472 O.2       1 <1>        -0.284270 
     13 C           1.888448   -1.628941    0.481110 C.ar      1 <1>        -0.052028 
     14 C           2.566099   -2.849708    0.551549 C.ar      1 <1>        -0.061121 
     15 C           4.027477   -2.897251    0.324805 C.ar      1 <1>        -0.061721 
     16 C           4.713838   -1.720781    0.013289 C.ar      1 <1>        -0.061121 
     17 C           3.987108   -0.431078   -0.092302 C.ar      1 <1>        -0.052028 
     18 O          -4.266479    2.130415   -0.123257 O.3       1 <1>        -0.359385 
     19 O          -0.675646    5.483792    0.012979 O.3       1 <1>        -0.358954 
     20 O           3.566296    2.341292    0.469489 O.3       1 <1>        -0.354461 
     21 C          -2.513238   -0.063166   -0.176651 C.3       1 <1>        -0.004315 
     22 C          -1.653043   -1.178138   -0.725568 C.2       1 <1>        -0.080815 
     23 C          -1.888164   -2.472811   -0.450093 C.2       1 <1>        -0.079306 
     24 C          -1.005078   -3.579440   -0.984341 C.3       1 <1>        -0.044040 
     25 C          -3.054040   -2.925003    0.407738 C.3       1 <1>        -0.044040 
     26 H          -3.227013    4.618127   -0.104102 H         1 <1>         0.066932 
     27 H           0.820665   -1.616162    0.666314 H         1 <1>         0.062425 
     28 H           2.025040   -3.763454    0.774715 H         1 <1>         0.061777 
     29 H           4.557401   -3.841236    0.405410 H         1 <1>         0.061759 
     30 H           5.786445   -1.749822   -0.150035 H         1 <1>         0.061777 
     31 H           4.560941    0.442912   -0.373367 H         1 <1>         0.062425 
     32 H          -4.634557    2.270217    0.744106 H         1 <1>         0.217328 
     33 H          -1.370070    6.132626    0.044092 H         1 <1>         0.217342 
     34 H           3.794661    3.263417    0.556836 H         1 <1>         0.217537 
     35 H          -2.811170   -0.284116    0.859502 H         1 <1>         0.035722 
     36 H          -3.412257   -0.067886   -0.811539 H         1 <1>         0.035722 
     37 H          -0.824723   -0.913115   -1.381904 H         1 <1>         0.057473 
     38 H          -0.096699   -3.203820   -1.478122 H         1 <1>         0.027427 
     39 H          -1.575203   -4.175666   -1.713014 H         1 <1>         0.027427 
     40 H          -0.698434   -4.236017   -0.156092 H         1 <1>         0.027427 
     41 H          -3.293645   -3.984644    0.230702 H         1 <1>         0.027427 
     42 H          -3.965827   -2.348809    0.188580 H         1 <1>         0.027427 
     43 H          -2.799018   -2.803380    1.471431 H         1 <1>         0.027427 
@<TRIPOS>BOND
     1    1    2 1    
     2    1    6 2    
     3    1   18 1    
     4    2    3 2    
     5    2   26 1    
     6    3    4 1    
     7    3   19 1    
     8    4    5 2    
     9    4    7 1    
    10    5    6 1    
    11    5   10 1    
    12    6   21 1    
    13    7    8 1    
    14    7   12 2    
    15    8    9 2    
    16    8   20 1    
    17    9   10 1    
    18    9   11 1    
    19   11   13 1    
    20   11   17 2    
    21   13   14 2    
    22   13   27 1    
    23   14   15 1    
    24   14   28 1    
    25   15   16 2    
    26   15   29 1    
    27   16   17 1    
    28   16   30 1    
    29   17   31 1    
    30   18   32 1    
    31   19   33 1    
    32   20   34 1    
    33   21   22 1    
    34   21   35 1    
    35   21   36 1    
    36   22   23 2    
    37   22   37 1    
    38   23   24 1    
    39   23   25 1    
    40   24   38 1    
    41   24   39 1    
    42   24   40 1    
    43   25   41 1    
    44   25   42 1    
    45   25   43 1    
@<TRIPOS>SUBSTRUCTURE
     1 ****        1 TEMP              0 ****  ****    0 ROOT 
@<TRIPOS>NORMAL
@<TRIPOS>FF_PBC
FORCE_FIELD_SETUP_FEATURE Force Field Setup information
v1.0  0 0.000000 0.000000 0.000000 0.000000 0.000000 0.000000 NONE 0 0 0 0 1 0 0 0 0 0 0 0 0
