@<TRIPOS>MOLECULE
MOL006934
   19    18     1     1     0
SMALL
GASTEIGER


@<TRIPOS>ATOM
      1 C          -2.567640    0.341058   -0.000094 C.3       1 <1>         0.044207 
      2 C          -1.281899   -0.523599    0.000117 C.3       1 <1>        -0.029647 
      3 C           0.000000    0.353437   -0.000092 C.3       1 <1>        -0.048916 
      4 C           1.281899   -0.523599    0.000117 C.3       1 <1>        -0.029647 
      5 C           2.567640    0.341058   -0.000094 C.3       1 <1>         0.044207 
      6 O          -3.704547   -0.540750    0.000114 O.3       1 <1>        -0.395007 
      7 O           3.704547   -0.540750    0.000114 O.3       1 <1>        -0.395007 
      8 H          -2.582754    0.982859   -0.897856 H         1 <1>         0.055696 
      9 H          -2.582760    0.983288    0.897363 H         1 <1>         0.055696 
     10 H          -1.291359   -1.170017    0.893102 H         1 <1>         0.028724 
     11 H          -1.291354   -1.170444   -0.892556 H         1 <1>         0.028724 
     12 H           0.000000    0.998878   -0.893861 H         1 <1>         0.026669 
     13 H          -0.000000    0.999305    0.893373 H         1 <1>         0.026669 
     14 H           1.291359   -1.170017    0.893102 H         1 <1>         0.028724 
     15 H           1.291354   -1.170444   -0.892556 H         1 <1>         0.028724 
     16 H           2.582754    0.982859   -0.897856 H         1 <1>         0.055696 
     17 H           2.582760    0.983288    0.897363 H         1 <1>         0.055696 
     18 H          -4.537505   -0.078306   -0.000000 H         1 <1>         0.209395 
     19 H           4.537505   -0.078306   -0.000000 H         1 <1>         0.209395 
@<TRIPOS>BOND
     1    1    2 1    
     2    1    6 1    
     3    1    8 1    
     4    1    9 1    
     5    2    3 1    
     6    2   10 1    
     7    2   11 1    
     8    3    4 1    
     9    3   12 1    
    10    3   13 1    
    11    4    5 1    
    12    4   14 1    
    13    4   15 1    
    14    5    7 1    
    15    5   16 1    
    16    5   17 1    
    17    6   18 1    
    18    7   19 1    
@<TRIPOS>SUBSTRUCTURE
     1 ****        1 TEMP              0 ****  ****    0 ROOT 
@<TRIPOS>NORMAL
@<TRIPOS>FF_PBC
FORCE_FIELD_SETUP_FEATURE Force Field Setup information
v1.0  0 0.000000 0.000000 0.000000 0.000000 0.000000 0.000000 NONE 0 0 0 0 1 0 0 0 0 0 0 0 0
