@<TRIPOS>MOLECULE
MOL004943
   52    54     1     1     0
SMALL
GASTEIGER


@<TRIPOS>ATOM
      1 C          -1.347058   -0.929440   -2.237668 C.3       1 <1>         0.193644 
      2 O          -1.323153    0.138231   -1.265802 O.3       1 <1>        -0.312468 
      3 O          -2.677343   -1.480834   -2.177534 O.3       1 <1>        -0.340168 
      4 C          -0.291373   -2.066905   -2.064639 C.3       1 <1>         0.134509 
      5 C          -0.302619    1.096109   -1.152372 C.ar      1 <1>         0.081939 
      6 C          -2.974768   -2.143733   -0.926449 C.3       1 <1>         0.113017 
      7 C          -0.560710   -2.853216   -0.760139 C.3       1 <1>         0.114074 
      8 O           1.064822   -1.579174   -2.045760 O.3       1 <1>        -0.384091 
      9 C          -0.375394    2.087183   -0.053440 C.ar      1 <1>        -0.001100 
     10 C           0.773576    1.170291   -2.054038 C.ar      1 <1>        -0.030736 
     11 C          -2.024447   -3.353228   -0.733597 C.3       1 <1>         0.111896 
     12 C          -4.461917   -2.605772   -0.931417 C.3       1 <1>         0.073015 
     13 O           0.362159   -3.960633   -0.658769 O.3       1 <1>        -0.386401 
     14 C           0.664435    3.010804    0.160438 C.ar      1 <1>         0.085807 
     15 C           1.908060    2.083823   -1.780141 C.ar      1 <1>        -0.046016 
     16 O          -2.261039   -4.309557   -1.781472 O.3       1 <1>        -0.386488 
     17 O          -5.239677   -1.755772   -0.059710 O.3       1 <1>        -0.392366 
     18 C           1.888736    2.931557   -0.667553 C.ar      1 <1>         0.051478 
     19 O           0.563639    4.001681    1.140691 O.3       1 <1>        -0.359040 
     20 C           3.117594    3.737221   -0.306333 C.2       1 <1>         0.188543 
     21 C           3.551836    3.985892    1.084739 C.2       1 <1>        -0.013708 
     22 O           3.794129    4.196693   -1.214111 O.2       1 <1>        -0.287193 
     23 C           3.205314    3.332413    2.204455 C.2       1 <1>        -0.050956 
     24 C           2.279050    2.139176    2.234448 C.ar      1 <1>        -0.024759 
     25 C           1.134070    2.161479    3.175607 C.ar      1 <1>        -0.052161 
     26 C           2.464555    1.036221    1.393298 C.ar      1 <1>        -0.052161 
     27 C           0.193369    1.131764    3.164620 C.ar      1 <1>        -0.031383 
     28 C           1.469109   -0.061503    1.387956 C.ar      1 <1>        -0.031383 
     29 C           0.349261   -0.007000    2.227431 C.ar      1 <1>         0.072617 
     30 O          -0.609223   -1.020118    2.181768 O.3       1 <1>        -0.359832 
     31 H          -1.267437   -0.488423   -3.242141 H         1 <1>         0.094159 
     32 H          -0.408917   -2.764811   -2.912142 H         1 <1>         0.067108 
     33 H          -2.842834   -1.446291   -0.079297 H         1 <1>         0.064668 
     34 H          -0.385990   -2.152037    0.067805 H         1 <1>         0.064758 
     35 H           1.706391   -2.276793   -1.933989 H         1 <1>         0.210111 
     36 H          -1.264230    2.104539    0.568479 H         1 <1>         0.066931 
     37 H           0.815826    0.562902   -2.947418 H         1 <1>         0.064350 
     38 H          -2.215857   -3.817469    0.249319 H         1 <1>         0.064673 
     39 H          -4.853763   -2.563706   -1.963587 H         1 <1>         0.058370 
     40 H          -4.554214   -3.649549   -0.580005 H         1 <1>         0.058370 
     41 H           0.280760   -4.440280    0.161218 H         1 <1>         0.210005 
     42 H           2.772934    2.060738   -2.432682 H         1 <1>         0.062620 
     43 H          -1.678691   -5.061324   -1.726876 H         1 <1>         0.210004 
     44 H          -6.163202   -1.989142   -0.029819 H         1 <1>         0.209508 
     45 H          -0.316838    4.140222    1.472364 H         1 <1>         0.217341 
     46 H           4.251155    4.814080    1.202973 H         1 <1>         0.065602 
     47 H           3.594748    3.664189    3.166432 H         1 <1>         0.062459 
     48 H           1.021818    2.988050    3.868415 H         1 <1>         0.062423 
     49 H           3.324622    0.988331    0.733004 H         1 <1>         0.062423 
     50 H          -0.647839    1.160434    3.845299 H         1 <1>         0.064338 
     51 H           1.610034   -0.901389    0.720522 H         1 <1>         0.064338 
     52 H          -1.457998   -0.729126    2.492877 H         1 <1>         0.217313 
@<TRIPOS>BOND
     1    1    2 1    
     2    1    3 1    
     3    1    4 1    
     4    1   31 1    
     5    2    5 1    
     6    3    6 1    
     7    4    7 1    
     8    4    8 1    
     9    4   32 1    
    10    5    9 1    
    11    5   10 2    
    12    6   11 1    
    13    6   12 1    
    14    6   33 1    
    15    7   11 1    
    16    7   13 1    
    17    7   34 1    
    18    8   35 1    
    19    9   14 2    
    20    9   36 1    
    21   10   15 1    
    22   10   37 1    
    23   11   16 1    
    24   11   38 1    
    25   12   17 1    
    26   12   39 1    
    27   12   40 1    
    28   13   41 1    
    29   14   18 1    
    30   14   19 1    
    31   15   18 2    
    32   15   42 1    
    33   16   43 1    
    34   17   44 1    
    35   18   20 1    
    36   19   45 1    
    37   20   21 1    
    38   20   22 2    
    39   21   23 2    
    40   21   46 1    
    41   23   24 1    
    42   23   47 1    
    43   24   25 1    
    44   24   26 2    
    45   25   27 2    
    46   25   48 1    
    47   26   28 1    
    48   26   49 1    
    49   27   29 1    
    50   27   50 1    
    51   28   29 2    
    52   28   51 1    
    53   29   30 1    
    54   30   52 1    
@<TRIPOS>SUBSTRUCTURE
     1 ****        1 TEMP              0 ****  ****    0 ROOT 
@<TRIPOS>NORMAL
@<TRIPOS>FF_PBC
FORCE_FIELD_SETUP_FEATURE Force Field Setup information
v1.0  0 0.000000 0.000000 0.000000 0.000000 0.000000 0.000000 NONE 0 0 0 0 1 0 0 0 0 0 0 0 0
