@<TRIPOS>MOLECULE
MOL004910
   44    46     1     1     0
SMALL
GASTEIGER


@<TRIPOS>ATOM
      1 C          -1.490274    0.591572    0.230994 C.ar      1 <1>         0.016852 
      2 C          -0.342219    1.293402    0.260191 C.ar      1 <1>         0.095823 
      3 C          -0.342475    2.776921    0.237513 C.ar      1 <1>         0.077501 
      4 C          -1.507764    3.445868    0.187027 C.ar      1 <1>         0.087985 
      5 C          -2.779745    2.678391    0.137839 C.ar      1 <1>        -0.001036 
      6 C          -2.777191    1.334949    0.137352 C.ar      1 <1>         0.080968 
      7 C           1.007395    3.459552    0.264103 C.2       1 <1>         0.170915 
      8 C           2.250911    2.613798    0.259378 C.3       1 <1>         0.041564 
      9 O           0.870570    0.610453    0.301810 O.3       1 <1>        -0.335304 
     10 C           1.939802    1.253327   -0.406532 C.3       1 <1>         0.097172 
     11 C           3.166992    0.336528   -0.372529 C.ar      1 <1>        -0.017977 
     12 C           3.969029    0.109865   -1.601164 C.ar      1 <1>        -0.056091 
     13 C           3.535484   -0.300260    0.820610 C.ar      1 <1>        -0.056091 
     14 C           4.697715   -1.219117    0.846776 C.ar      1 <1>        -0.061420 
     15 C           5.429913   -1.457950   -0.320606 C.ar      1 <1>        -0.061740 
     16 C           5.059295   -0.765803   -1.576658 C.ar      1 <1>        -0.061420 
     17 C          -1.391478   -0.944683    0.282325 C.3       1 <1>        -0.004331 
     18 C          -2.594209   -1.678218    0.824820 C.2       1 <1>        -0.080815 
     19 C          -2.986311   -2.897774    0.417385 C.2       1 <1>        -0.079306 
     20 C          -4.234693   -3.553166    0.968516 C.3       1 <1>        -0.044040 
     21 C          -2.227751   -3.710412   -0.608107 C.3       1 <1>        -0.044040 
     22 O          -3.993682    0.663237    0.037395 O.3       1 <1>        -0.359385 
     23 O          -1.518131    4.842020    0.164091 O.3       1 <1>        -0.358966 
     24 O           1.114862    4.674917    0.291401 O.2       1 <1>        -0.291783 
     25 H          -3.725975    3.207770    0.090299 H         1 <1>         0.066932 
     26 H           3.056406    3.121291   -0.294124 H         1 <1>         0.037400 
     27 H           2.576088    2.458227    1.297694 H         1 <1>         0.037400 
     28 H           1.628844    1.394820   -1.455816 H         1 <1>         0.065571 
     29 H           3.712654    0.625033   -2.521484 H         1 <1>         0.062111 
     30 H           2.966543   -0.128142    1.729935 H         1 <1>         0.062111 
     31 H           4.974156   -1.709362    1.774454 H         1 <1>         0.061767 
     32 H           6.269914   -2.144867   -0.308620 H         1 <1>         0.061758 
     33 H           5.639741   -0.937413   -2.476661 H         1 <1>         0.061767 
     34 H          -1.155176   -1.243339   -0.749872 H         1 <1>         0.035721 
     35 H          -0.557622   -1.244257    0.936200 H         1 <1>         0.035721 
     36 H          -3.159530   -1.167125    1.605011 H         1 <1>         0.057473 
     37 H          -4.752646   -2.919865    1.702868 H         1 <1>         0.027427 
     38 H          -4.935727   -3.765260    0.144959 H         1 <1>         0.027427 
     39 H          -3.976087   -4.503707    1.458817 H         1 <1>         0.027427 
     40 H          -2.394669   -4.787841   -0.459507 H         1 <1>         0.027427 
     41 H          -1.142816   -3.548130   -0.539553 H         1 <1>         0.027427 
     42 H          -2.575944   -3.436891   -1.614340 H         1 <1>         0.027427 
     43 H          -3.988100    0.029858   -0.672164 H         1 <1>         0.217328 
     44 H          -2.386399    5.221946    0.099546 H         1 <1>         0.217342 
@<TRIPOS>BOND
     1    1    2 2    
     2    1    6 1    
     3    1   17 1    
     4    2    3 1    
     5    2    9 1    
     6    3    4 2    
     7    3    7 1    
     8    4    5 1    
     9    4   23 1    
    10    5    6 2    
    11    5   25 1    
    12    6   22 1    
    13    7    8 1    
    14    7   24 2    
    15    8   10 1    
    16    8   26 1    
    17    8   27 1    
    18    9   10 1    
    19   10   11 1    
    20   10   28 1    
    21   11   12 1    
    22   11   13 2    
    23   12   16 2    
    24   12   29 1    
    25   13   14 1    
    26   13   30 1    
    27   14   15 2    
    28   14   31 1    
    29   15   16 1    
    30   15   32 1    
    31   16   33 1    
    32   17   18 1    
    33   17   34 1    
    34   17   35 1    
    35   18   19 2    
    36   18   36 1    
    37   19   20 1    
    38   19   21 1    
    39   20   37 1    
    40   20   38 1    
    41   20   39 1    
    42   21   40 1    
    43   21   41 1    
    44   21   42 1    
    45   22   43 1    
    46   23   44 1    
@<TRIPOS>SUBSTRUCTURE
     1 ****        1 TEMP              0 ****  ****    0 ROOT 
@<TRIPOS>NORMAL
@<TRIPOS>FF_PBC
FORCE_FIELD_SETUP_FEATURE Force Field Setup information
v1.0  0 0.000000 0.000000 0.000000 0.000000 0.000000 0.000000 NONE 0 0 0 0 1 0 0 0 0 0 0 0 0
