@<TRIPOS>MOLECULE
MOL004082
  173   172     1     1     0
SMALL
GASTEIGER


@<TRIPOS>ATOM
      1 O           2.585560    3.255575    0.640193 O.3       1 <1>        -0.307224 
      2 O          -1.037747    2.973074    0.446666 O.3       1 <1>        -0.312513 
      3 O           0.225904    0.970935   -1.074477 O.3       1 <1>        -0.312513 
      4 O           4.703164    3.108959    1.091046 O.2       1 <1>        -0.264964 
      5 O          -3.235087    2.957934    0.469722 O.2       1 <1>        -0.264974 
      6 O          -0.746866   -0.718474   -2.069346 O.2       1 <1>        -0.264974 
      7 C          -1.555404   -6.053453    0.034191 C.3       1 <1>        -0.053057 
      8 C          -1.785328   -7.587603   -0.028452 C.3       1 <1>        -0.053057 
      9 C          -8.146341   11.869045   -0.038826 C.3       1 <1>        -0.053057 
     10 C           8.935736    2.497204   -6.223571 C.3       1 <1>        -0.053057 
     11 C          -8.124287   13.418801   -0.023005 C.3       1 <1>        -0.053057 
     12 C          10.046035    2.450771   -7.302734 C.3       1 <1>        -0.053057 
     13 C          -0.036396   -5.710548    0.057627 C.3       1 <1>        -0.053057 
     14 C          -3.294328   -7.957859   -0.030939 C.3       1 <1>        -0.053057 
     15 C          -6.706914   11.306384   -0.060380 C.3       1 <1>        -0.053057 
     16 C           7.749110    1.572372   -6.618088 C.3       1 <1>        -0.053057 
     17 C          -9.570025   13.976296   -0.006781 C.3       1 <1>        -0.053057 
     18 C          11.221423    3.401616   -6.956221 C.3       1 <1>        -0.053057 
     19 C           0.176591   -4.184432    0.198699 C.3       1 <1>        -0.053057 
     20 C          -3.478818   -9.498904   -0.048826 C.3       1 <1>        -0.053057 
     21 C          -6.733918    9.760003   -0.042365 C.3       1 <1>        -0.053057 
     22 C           6.644705    1.629098   -5.533761 C.3       1 <1>        -0.053057 
     23 C          -9.553321   15.525480    0.001558 C.3       1 <1>        -0.053057 
     24 C          12.305181    3.331729   -8.063663 C.3       1 <1>        -0.053057 
     25 C           1.673590   -3.750417    0.222033 C.3       1 <1>        -0.053057 
     26 C          -4.976230   -9.916093   -0.037528 C.3       1 <1>        -0.053057 
     27 C          -5.282381    9.218287   -0.055597 C.3       1 <1>        -0.053057 
     28 C           5.373737    0.807045   -5.890429 C.3       1 <1>        -0.053057 
     29 C         -10.998382   16.081420    0.004513 C.3       1 <1>        -0.053057 
     30 C          13.517284    4.254145   -7.756764 C.3       1 <1>        -0.053057 
     31 C           1.713346   -2.237928    0.556282 C.3       1 <1>        -0.053045 
     32 C          -5.083530  -11.465425   -0.026887 C.3       1 <1>        -0.053057 
     33 C          -5.252426    7.671815    0.043547 C.3       1 <1>        -0.053045 
     34 C           4.357929    0.983916   -4.732536 C.3       1 <1>        -0.053045 
     35 C         -10.999700   17.631025    0.004397 C.3       1 <1>        -0.053057 
     36 C          14.582802    4.126260   -8.880278 C.3       1 <1>        -0.053057 
     37 C           3.096653   -1.519737    0.510262 C.3       1 <1>        -0.052596 
     38 C          -6.546537  -11.980131   -0.015432 C.3       1 <1>        -0.053065 
     39 C          -3.787418    7.163850    0.067380 C.3       1 <1>        -0.052596 
     40 C           2.930909    0.393690   -4.934416 C.3       1 <1>        -0.052596 
     41 C         -12.456135   18.168841    0.002696 C.3       1 <1>        -0.053065 
     42 C          15.830011    5.016044   -8.625509 C.3       1 <1>        -0.053065 
     43 C           2.863234   -0.030808    0.910663 C.3       1 <1>        -0.044055 
     44 C          -6.544689  -13.532700   -0.003991 C.3       1 <1>        -0.053306 
     45 C          -3.743688    5.626701    0.241345 C.3       1 <1>        -0.044055 
     46 C           2.160227    0.699857   -3.617961 C.3       1 <1>        -0.044055 
     47 C         -12.487368   19.721626    0.001373 C.3       1 <1>        -0.053306 
     48 C          16.853615    4.818291   -9.773270 C.3       1 <1>        -0.053306 
     49 C           3.918325    1.004148    0.443540 C.3       1 <1>         0.033210 
     50 C          -7.982135  -14.116125    0.002161 C.3       1 <1>        -0.055911 
     51 C         -13.944734   20.257463    0.000078 C.3       1 <1>        -0.055911 
     52 C          18.106345    5.721103   -9.625096 C.3       1 <1>        -0.055911 
     53 C          -2.279321    5.116654    0.257083 C.3       1 <1>         0.033200 
     54 C           0.626955    0.464974   -3.565995 C.3       1 <1>         0.033200 
     55 C           1.289180    2.676998    0.361007 C.3       1 <1>         0.115623 
     56 C           3.709776    2.491999    0.741607 C.2       1 <1>         0.262554 
     57 C          -7.951196  -15.666542    0.006178 C.3       1 <1>        -0.065276 
     58 C         -13.974416   21.806285   -0.000260 C.3       1 <1>        -0.065276 
     59 C          19.112144    5.469754  -10.787439 C.3       1 <1>        -0.065276 
     60 C          -2.216094    3.619476    0.408277 C.2       1 <1>         0.262238 
     61 C           0.019783    0.226229   -2.188059 C.2       1 <1>         0.262238 
     62 C           0.181665    3.740699    0.560003 C.3       1 <1>         0.085995 
     63 C           1.134337    2.102634   -1.083317 C.3       1 <1>         0.085995 
     64 H          -2.029313   -5.573093   -0.837730 H         1 <1>         0.026528 
     65 H          -2.040358   -5.656916    0.943171 H         1 <1>         0.026528 
     66 H          -1.303107   -8.054772    0.845397 H         1 <1>         0.026528 
     67 H          -1.308356   -7.982444   -0.940454 H         1 <1>         0.026528 
     68 H           8.576910    3.535106   -6.118384 H         1 <1>         0.026528 
     69 H           9.348602    2.177926   -5.251716 H         1 <1>         0.026528 
     70 H          -8.694015   11.516203   -0.929230 H         1 <1>         0.026528 
     71 H          -8.670812   11.504247    0.860343 H         1 <1>         0.026528 
     72 H          -7.583268   13.772687    0.872212 H         1 <1>         0.026528 
     73 H          -7.593395   13.789566   -0.917362 H         1 <1>         0.026528 
     74 H          10.420501    1.417267   -7.388449 H         1 <1>         0.026528 
     75 H           9.614574    2.744480   -8.273769 H         1 <1>         0.026528 
     76 H           0.443958   -6.213486    0.912621 H         1 <1>         0.026528 
     77 H           0.442626   -6.064395   -0.869088 H         1 <1>         0.026528 
     78 H          -3.779278   -7.519252   -0.916867 H         1 <1>         0.026528 
     79 H          -3.776164   -7.547053    0.870272 H         1 <1>         0.026528 
     80 H          -6.187329   11.658768   -0.965318 H         1 <1>         0.026528 
     81 H          -6.159681   11.674876    0.821532 H         1 <1>         0.026528 
     82 H           8.104735    0.534332   -6.725096 H         1 <1>         0.026528 
     83 H           7.335201    1.903217   -7.585514 H         1 <1>         0.026528 
     84 H          10.848404    4.435054   -6.872261 H         1 <1>         0.026528 
     85 H          11.660352    3.108350   -5.988553 H         1 <1>         0.026528 
     86 H         -10.107358   13.613863   -0.899260 H         1 <1>         0.026528 
     87 H         -10.095262   13.604425    0.889199 H         1 <1>         0.026528 
     88 H          -0.333164   -3.683591   -0.640868 H         1 <1>         0.026528 
     89 H          -0.309792   -3.864334    1.133753 H         1 <1>         0.026528 
     90 H          -2.981221   -9.933653    0.834571 H         1 <1>         0.026528 
     91 H          -2.996883   -9.911368   -0.950916 H         1 <1>         0.026528 
     92 H          -7.251999    9.407108    0.863957 H         1 <1>         0.026528 
     93 H          -7.279784    9.383988   -0.922381 H         1 <1>         0.026528 
     94 H           6.361942    2.686613   -5.395634 H         1 <1>         0.026528 
     95 H           7.063694    1.259934   -4.583340 H         1 <1>         0.026528 
     96 H          -9.016865   15.879879    0.896692 H         1 <1>         0.026528 
     97 H          -9.018618   15.887248   -0.891553 H         1 <1>         0.026528 
     98 H          12.659274    2.291355   -8.154843 H         1 <1>         0.026528 
     99 H          11.858521    3.630722   -9.026914 H         1 <1>         0.026528 
    100 H           2.137268   -3.933095   -0.760025 H         1 <1>         0.026528 
    101 H           2.237513   -4.313660    0.984951 H         1 <1>         0.026528 
    102 H          -5.482768   -9.512702   -0.932013 H         1 <1>         0.026528 
    103 H          -5.472984   -9.503968    0.857994 H         1 <1>         0.026528 
    104 H           5.624758   -0.257362   -6.017789 H         1 <1>         0.026528 
    105 H           4.941942    1.183310   -6.829970 H         1 <1>         0.026528 
    106 H          -4.781229    9.543769   -0.983538 H         1 <1>         0.026528 
    107 H          -4.730840    9.640703    0.801761 H         1 <1>         0.026528 
    108 H         -11.529634   15.714847   -0.888628 H         1 <1>         0.026528 
    109 H         -11.527063   15.713721    0.898749 H         1 <1>         0.026528 
    110 H          13.181194    5.303265   -7.685696 H         1 <1>         0.026528 
    111 H          13.967770    3.966207   -6.791246 H         1 <1>         0.026528 
    112 H           1.043836   -1.761009   -0.176262 H         1 <1>         0.026529 
    113 H           1.284824   -2.086511    1.561785 H         1 <1>         0.026529 
    114 H          -4.566046  -11.849079    0.867508 H         1 <1>         0.026528 
    115 H          -4.573458  -11.861116   -0.920285 H         1 <1>         0.026528 
    116 H           4.254463    2.070606   -4.576496 H         1 <1>         0.026529 
    117 H           4.795061    0.547393   -3.820176 H         1 <1>         0.026529 
    118 H          -5.785317    7.238385   -0.819388 H         1 <1>         0.026529 
    119 H          -5.772858    7.361620    0.965389 H         1 <1>         0.026529 
    120 H          14.901165    3.072108   -8.952796 H         1 <1>         0.026528 
    121 H          14.121755    4.413371   -9.841171 H         1 <1>         0.026528 
    122 H         -10.470406   17.999398    0.898223 H         1 <1>         0.026528 
    123 H         -10.469499   17.999529   -0.888840 H         1 <1>         0.026528 
    124 H           3.499147   -1.581839   -0.512533 H         1 <1>         0.026540 
    125 H           3.817028   -1.991523    1.198715 H         1 <1>         0.026540 
    126 H          -7.078052  -11.614462   -0.909210 H         1 <1>         0.026528 
    127 H          -7.068931  -11.601099    0.878412 H         1 <1>         0.026528 
    128 H           2.435299    0.876847   -5.792282 H         1 <1>         0.026540 
    129 H           2.982220   -0.691432   -5.127188 H         1 <1>         0.026540 
    130 H          -3.293344    7.448645   -0.875191 H         1 <1>         0.026540 
    131 H          -3.246455    7.640811    0.900997 H         1 <1>         0.026540 
    132 H         -12.981353   17.793280   -0.891886 H         1 <1>         0.026528 
    133 H         -12.982928   17.794031    0.896636 H         1 <1>         0.026528 
    134 H          15.523986    6.073402   -8.575987 H         1 <1>         0.026528 
    135 H          16.295134    4.742620   -7.665030 H         1 <1>         0.026528 
    136 H           1.955555    0.200957    0.372919 H         1 <1>         0.027004 
    137 H           2.677458    0.064628    1.993865 H         1 <1>         0.027004 
    138 H          -6.007367  -13.890457    0.890947 H         1 <1>         0.026520 
    139 H          -6.010960  -13.903186   -0.895800 H         1 <1>         0.026520 
    140 H          -4.294895    5.142947   -0.581597 H         1 <1>         0.027004 
    141 H           2.631434    0.112954   -2.812458 H         1 <1>         0.027004 
    142 H           2.294823    1.780592   -3.463828 H         1 <1>         0.027004 
    143 H          -4.223856    5.347607    1.193086 H         1 <1>         0.027004 
    144 H         -11.959773   20.094620    0.896089 H         1 <1>         0.026520 
    145 H         -11.958864   20.093329   -0.893366 H         1 <1>         0.026520 
    146 H          17.172589    3.764263   -9.802463 H         1 <1>         0.026520 
    147 H          16.360512    5.060074  -10.728823 H         1 <1>         0.026520 
    148 H           4.845653    0.689937    0.952024 H         1 <1>         0.036606 
    149 H           4.130491    0.892379   -0.628613 H         1 <1>         0.036606 
    150 H          -8.523425  -13.764281   -0.891273 H         1 <1>         0.026265 
    151 H          -8.518099  -13.758419    0.896453 H         1 <1>         0.026265 
    152 H          17.778675    6.774026   -9.627629 H         1 <1>         0.026265 
    153 H         -14.472122   19.883816   -0.893648 H         1 <1>         0.026265 
    154 H         -14.473397   19.884232    0.893205 H         1 <1>         0.026265 
    155 H          18.593629    5.527885   -8.654361 H         1 <1>         0.026265 
    156 H          -1.804672    5.386399   -0.699751 H         1 <1>         0.036606 
    157 H           0.460073   -0.457325   -4.142470 H         1 <1>         0.036606 
    158 H           0.072326    1.272541   -4.072567 H         1 <1>         0.036606 
    159 H          -1.747906    5.602229    1.089431 H         1 <1>         0.036606 
    160 H           1.050541    1.971733    1.172148 H         1 <1>         0.064858 
    161 H          -8.977333  -16.062342    0.010031 H         1 <1>         0.022978 
    162 H          -7.428583  -16.038263    0.899143 H         1 <1>         0.022978 
    163 H          -7.433692  -16.043226   -0.887734 H         1 <1>         0.022978 
    164 H         -15.014649   22.163076   -0.000875 H         1 <1>         0.022978 
    165 H         -13.469624   22.200038    0.893880 H         1 <1>         0.022978 
    166 H          18.643868    4.923007  -11.619905 H         1 <1>         0.022978 
    167 H          19.969034    4.874220  -10.436466 H         1 <1>         0.022978 
    168 H          19.495314    6.421483  -11.186954 H         1 <1>         0.022978 
    169 H         -13.468652   22.199745   -0.893977 H         1 <1>         0.022978 
    170 H           0.263856    4.194424    1.564373 H         1 <1>         0.059267 
    171 H           0.320189    4.530507   -0.197935 H         1 <1>         0.059267 
    172 H           2.157091    1.823501   -1.309528 H         1 <1>         0.059267 
    173 H           0.811687    2.874737   -1.795820 H         1 <1>         0.059267 
@<TRIPOS>BOND
     1   55    1 1    
     2    1   56 1    
     3    2   60 1    
     4   62    2 1    
     5    3   61 1    
     6   63    3 1    
     7   56    4 2    
     8   60    5 2    
     9   61    6 2    
    10    7    8 1    
    11   13    7 1    
    12    7   64 1    
    13    7   65 1    
    14    8   14 1    
    15    8   66 1    
    16    8   67 1    
    17    9   11 1    
    18   15    9 1    
    19    9   70 1    
    20    9   71 1    
    21   10   12 1    
    22   16   10 1    
    23   10   68 1    
    24   10   69 1    
    25   11   17 1    
    26   11   72 1    
    27   11   73 1    
    28   12   18 1    
    29   12   74 1    
    30   12   75 1    
    31   19   13 1    
    32   13   76 1    
    33   13   77 1    
    34   14   20 1    
    35   14   78 1    
    36   14   79 1    
    37   21   15 1    
    38   15   80 1    
    39   15   81 1    
    40   22   16 1    
    41   16   82 1    
    42   16   83 1    
    43   17   23 1    
    44   17   86 1    
    45   17   87 1    
    46   18   24 1    
    47   18   84 1    
    48   18   85 1    
    49   25   19 1    
    50   19   88 1    
    51   19   89 1    
    52   20   26 1    
    53   20   90 1    
    54   20   91 1    
    55   27   21 1    
    56   21   92 1    
    57   21   93 1    
    58   28   22 1    
    59   22   94 1    
    60   22   95 1    
    61   23   29 1    
    62   23   96 1    
    63   23   97 1    
    64   24   30 1    
    65   24   98 1    
    66   24   99 1    
    67   31   25 1    
    68   25  100 1    
    69   25  101 1    
    70   26   32 1    
    71   26  102 1    
    72   26  103 1    
    73   33   27 1    
    74   27  106 1    
    75   27  107 1    
    76   34   28 1    
    77   28  104 1    
    78   28  105 1    
    79   29   35 1    
    80   29  108 1    
    81   29  109 1    
    82   30   36 1    
    83   30  110 1    
    84   30  111 1    
    85   37   31 1    
    86   31  112 1    
    87   31  113 1    
    88   32   38 1    
    89   32  114 1    
    90   32  115 1    
    91   39   33 1    
    92   33  118 1    
    93   33  119 1    
    94   40   34 1    
    95   34  116 1    
    96   34  117 1    
    97   35   41 1    
    98   35  122 1    
    99   35  123 1    
   100   36   42 1    
   101   36  120 1    
   102   36  121 1    
   103   43   37 1    
   104   37  124 1    
   105   37  125 1    
   106   38   44 1    
   107   38  126 1    
   108   38  127 1    
   109   45   39 1    
   110   39  130 1    
   111   39  131 1    
   112   46   40 1    
   113   40  128 1    
   114   40  129 1    
   115   41   47 1    
   116   41  132 1    
   117   41  133 1    
   118   42   48 1    
   119   42  134 1    
   120   42  135 1    
   121   49   43 1    
   122   43  136 1    
   123   43  137 1    
   124   44   50 1    
   125   44  138 1    
   126   44  139 1    
   127   53   45 1    
   128   45  140 1    
   129   45  143 1    
   130   54   46 1    
   131   46  141 1    
   132   46  142 1    
   133   47   51 1    
   134   47  144 1    
   135   47  145 1    
   136   48   52 1    
   137   48  146 1    
   138   48  147 1    
   139   56   49 1    
   140   49  148 1    
   141   49  149 1    
   142   50   57 1    
   143   50  150 1    
   144   50  151 1    
   145   51   58 1    
   146   51  153 1    
   147   51  154 1    
   148   52   59 1    
   149   52  152 1    
   150   52  155 1    
   151   60   53 1    
   152   53  156 1    
   153   53  159 1    
   154   61   54 1    
   155   54  157 1    
   156   54  158 1    
   157   55   62 1    
   158   55   63 1    
   159   55  160 1    
   160   57  161 1    
   161   57  162 1    
   162   57  163 1    
   163   58  164 1    
   164   58  165 1    
   165   58  169 1    
   166   59  166 1    
   167   59  167 1    
   168   59  168 1    
   169   62  170 1    
   170   62  171 1    
   171   63  172 1    
   172   63  173 1    
@<TRIPOS>SUBSTRUCTURE
     1 ****        7 TEMP              0 ****  ****    0 ROOT 
@<TRIPOS>NORMAL
@<TRIPOS>FF_PBC
FORCE_FIELD_SETUP_FEATURE Force Field Setup information
v1.0  0 0.000000 0.000000 0.000000 0.000000 0.000000 0.000000 NONE 0 0 0 0 1 0 0 0 0 0 0 0 0
