@<TRIPOS>MOLECULE
MOL012950
   34    37     1     1     0
SMALL
GASTEIGER


@<TRIPOS>ATOM
      1 P           4.655659   -0.138111   -0.707837 P.3       1 <1>         0.475418 
      2 O           0.966077    0.346925    1.492077 O.3       1 <1>        -0.309309 
      3 O           3.236903   -0.825061   -0.997161 O.3       1 <1>        -0.277718 
      4 O           4.619380    0.343734    0.820614 O.3       1 <1>        -0.283971 
      5 O           1.049408   -2.418700   -0.421594 O.3       1 <1>        -0.380286 
      6 O           4.872434    1.118316   -1.668604 O.3       1 <1>        -0.302467 
      7 O           5.752650   -1.123130   -0.913591 O.2       1 <1>        -0.227311 
      8 N          -1.210004    0.204994    0.586892 N.ar      1 <1>        -0.131696 
      9 N          -2.662115    1.892175    0.450937 N.ar      1 <1>        -0.182219 
     10 N          -2.660230   -1.585534   -0.265703 N.ar      1 <1>        -0.173021 
     11 N          -4.864308   -0.786413   -0.844240 N.ar      1 <1>        -0.221797 
     12 N          -5.524961    1.542980   -0.594764 N.3       1 <1>        -0.284765 
     13 C           2.085048   -0.211072   -0.405607 C.3       1 <1>         0.133140 
     14 C           2.281936   -0.081196    1.115404 C.3       1 <1>         0.118550 
     15 C           0.759469   -1.007199   -0.467565 C.3       1 <1>         0.173657 
     16 C           0.038632   -0.537403    0.833804 C.3       1 <1>         0.298125 
     17 C           3.437494    0.900853    1.417077 C.3       1 <1>         0.088027 
     18 C          -2.347388   -0.340261    0.094868 C.ar      1 <1>         0.338776 
     19 C          -1.409771    1.569126    0.808989 C.ar      1 <1>         0.271918 
     20 C          -3.303808    0.764208    0.000230 C.ar      1 <1>         0.197660 
     21 C          -4.572640    0.510530   -0.481836 C.ar      1 <1>         0.139686 
     22 C          -3.932129   -1.816293   -0.738767 C.ar      1 <1>         0.124352 
     23 H           1.924969    0.788668   -0.846003 H         1 <1>         0.065789 
     24 H           2.526670   -1.065505    1.555044 H         1 <1>         0.064850 
     25 H           0.203609   -0.758589   -1.388707 H         1 <1>         0.071577 
     26 H          -0.152032   -1.406011    1.489045 H         1 <1>         0.144492 
     27 H           3.223748    1.894902    0.994919 H         1 <1>         0.059232 
     28 H           3.585766    1.005515    2.502951 H         1 <1>         0.059232 
     29 H           0.284192   -2.982001   -0.496574 H         1 <1>         0.210285 
     30 H          -0.679746    2.269461    1.207741 H         1 <1>         0.162031 
     31 H           4.243176    1.793715   -1.457674 H         1 <1>         0.222031 
     32 H          -4.217908   -2.820264   -1.036728 H         1 <1>         0.104946 
     33 H          -6.398037    1.297348   -0.007350 H         1 <1>         0.125394 
     34 H          -5.811443    1.660091   -1.630085 H         1 <1>         0.125394 
@<TRIPOS>BOND
     1    3    1 1    
     2    1    4 1    
     3    1    6 1    
     4    1    7 2    
     5   14    2 1    
     6    2   16 1    
     7   13    3 1    
     8    4   17 1    
     9   15    5 1    
    10    5   29 1    
    11    6   31 1    
    12   16    8 1    
    13    8   18 1    
    14    8   19 1    
    15   19    9 2    
    16    9   20 1    
    17   18   10 2    
    18   10   22 1    
    19   11   21 1    
    20   22   11 2    
    21   21   12 1    
    22   12   33 1    
    23   12   34 1    
    24   13   14 1    
    25   13   15 1    
    26   13   23 1    
    27   14   17 1    
    28   14   24 1    
    29   15   16 1    
    30   15   25 1    
    31   16   26 1    
    32   17   27 1    
    33   17   28 1    
    34   18   20 1    
    35   19   30 1    
    36   20   21 2    
    37   22   32 1    
@<TRIPOS>SUBSTRUCTURE
     1 ****        1 TEMP              0 ****  ****    0 ROOT 
@<TRIPOS>NORMAL
@<TRIPOS>FF_PBC
FORCE_FIELD_SETUP_FEATURE Force Field Setup information
v1.0  0 0.000000 0.000000 0.000000 0.000000 0.000000 0.000000 NONE 0 0 0 0 1 0 0 0 0 0 0 0 0
