@<TRIPOS>MOLECULE
MOL002468
   53    54     1     1     0
SMALL
GASTEIGER


@<TRIPOS>ATOM
      1 O          -1.239165   -0.462210   -2.139661 O.3       1 <1>        -0.391360 
      2 O           1.275931    0.747219   -2.222542 O.2       1 <1>        -0.297311 
      3 O          -7.528503   -1.835869    1.122196 O.3       1 <1>        -0.345341 
      4 O           7.783074   -1.850454    0.653654 O.3       1 <1>        -0.345341 
      5 O          -8.665882    0.572586    1.939055 O.3       1 <1>        -0.357269 
      6 O           8.652809    0.370290    2.091802 O.3       1 <1>        -0.357269 
      7 C          -1.243367    0.602988   -1.172455 C.3       1 <1>         0.062195 
      8 C          -2.563968    0.515134   -0.361195 C.3       1 <1>        -0.022468 
      9 C          -0.008169    0.478989   -0.238505 C.3       1 <1>         0.031875 
     10 C          -3.804465    0.647616   -1.281483 C.3       1 <1>        -0.025254 
     11 C           1.282262    0.599648   -1.010724 C.2       1 <1>         0.136114 
     12 C           2.573385    0.520445   -0.234316 C.3       1 <1>         0.009887 
     13 C          -5.080357    0.623474   -0.429836 C.ar      1 <1>        -0.044678 
     14 C           3.811163    0.777402   -1.129997 C.3       1 <1>        -0.020924 
     15 C           5.085134    0.657503   -0.284252 C.ar      1 <1>        -0.044363 
     16 C          -5.676043   -0.601513   -0.070257 C.ar      1 <1>        -0.025975 
     17 C          -5.692961    1.895911    0.021081 C.ar      1 <1>        -0.055980 
     18 C           5.807738   -0.551500   -0.233006 C.ar      1 <1>        -0.025965 
     19 C          -6.915693   -0.628951    0.750823 C.ar      1 <1>         0.105659 
     20 C           5.558569    1.828996    0.490948 C.ar      1 <1>        -0.055971 
     21 C          -6.861335    1.880875    0.793248 C.ar      1 <1>        -0.029141 
     22 C          -7.496877    0.592180    1.170582 C.ar      1 <1>         0.102451 
     23 C           7.043641   -0.659656    0.587351 C.ar      1 <1>         0.105659 
     24 C           6.720551    1.736186    1.267364 C.ar      1 <1>        -0.029141 
     25 C           7.489141    0.465922    1.321267 C.ar      1 <1>         0.102451 
     26 C          -7.001604   -3.106860    0.711158 C.3       1 <1>         0.043136 
     27 C           7.414515   -3.013672   -0.103591 C.3       1 <1>         0.043136 
     28 H          -1.211052    1.581118   -1.687175 H         1 <1>         0.059732 
     29 H          -2.589486    1.320042    0.391705 H         1 <1>         0.029327 
     30 H          -2.607202   -0.453694    0.162267 H         1 <1>         0.029327 
     31 H          -0.039904    1.267791    0.529404 H         1 <1>         0.036674 
     32 H          -0.029750   -0.502924    0.259375 H         1 <1>         0.036674 
     33 H          -3.758470    1.593033   -1.844079 H         1 <1>         0.031398 
     34 H          -3.827284   -0.176310   -2.012670 H         1 <1>         0.031398 
     35 H           2.654720   -0.483598    0.210664 H         1 <1>         0.034471 
     36 H           2.555669    1.264220    0.578118 H         1 <1>         0.034471 
     37 H           3.754147    1.788156   -1.564997 H         1 <1>         0.031720 
     38 H           3.834493    0.053300   -1.960518 H         1 <1>         0.031720 
     39 H          -0.467431   -0.439355   -2.700215 H         1 <1>         0.209791 
     40 H          -5.210494   -1.519712   -0.405301 H         1 <1>         0.064684 
     41 H          -5.235652    2.843853   -0.245604 H         1 <1>         0.062110 
     42 H           5.444318   -1.398135   -0.801242 H         1 <1>         0.064684 
     43 H           5.002186    2.760771    0.458419 H         1 <1>         0.062110 
     44 H          -7.299672    2.819698    1.115642 H         1 <1>         0.064412 
     45 H           7.055290    2.600888    1.830606 H         1 <1>         0.064412 
     46 H          -8.992671    1.435449    2.164213 H         1 <1>         0.217422 
     47 H          -7.657705   -3.888627    1.121367 H         1 <1>         0.052871 
     48 H          -5.987011   -3.262089    1.109255 H         1 <1>         0.052871 
     49 H          -6.999819   -3.195528   -0.386157 H         1 <1>         0.052871 
     50 H           8.881339    1.173152    2.544752 H         1 <1>         0.217422 
     51 H           8.156687   -3.797347    0.108135 H         1 <1>         0.052871 
     52 H           7.431699   -2.801581   -1.183683 H         1 <1>         0.052871 
     53 H           6.423230   -3.385851    0.197406 H         1 <1>         0.052871 
@<TRIPOS>BOND
     1    7    1 1    
     2    1   39 1    
     3   11    2 2    
     4   19    3 1    
     5    3   26 1    
     6   23    4 1    
     7    4   27 1    
     8   22    5 1    
     9    5   46 1    
    10   25    6 1    
    11    6   50 1    
    12    7    8 1    
    13    9    7 1    
    14    7   28 1    
    15    8   10 1    
    16    8   29 1    
    17    8   30 1    
    18   11    9 1    
    19    9   31 1    
    20    9   32 1    
    21   10   13 1    
    22   10   33 1    
    23   10   34 1    
    24   12   11 1    
    25   14   12 1    
    26   12   35 1    
    27   12   36 1    
    28   13   16 2    
    29   13   17 1    
    30   15   14 1    
    31   14   37 1    
    32   14   38 1    
    33   18   15 2    
    34   15   20 1    
    35   16   19 1    
    36   16   40 1    
    37   17   21 2    
    38   17   41 1    
    39   23   18 1    
    40   18   42 1    
    41   19   22 2    
    42   20   24 2    
    43   20   43 1    
    44   21   22 1    
    45   21   44 1    
    46   23   25 2    
    47   24   25 1    
    48   24   45 1    
    49   26   47 1    
    50   26   48 1    
    51   26   49 1    
    52   27   51 1    
    53   27   52 1    
    54   27   53 1    
@<TRIPOS>SUBSTRUCTURE
     1 ****        1 TEMP              0 ****  ****    0 ROOT 
@<TRIPOS>NORMAL
@<TRIPOS>FF_PBC
FORCE_FIELD_SETUP_FEATURE Force Field Setup information
v1.0  0 0.000000 0.000000 0.000000 0.000000 0.000000 0.000000 NONE 0 0 0 0 1 0 0 0 0 0 0 0 0
