@<TRIPOS>MOLECULE
MOL006124
   44    44     1     1     0
SMALL
GASTEIGER


@<TRIPOS>ATOM
      1 C          -1.199863    0.316047   -0.501025 C.3       1 <1>        -0.011331 
      2 C          -1.385161   -1.202300   -0.161698 C.3       1 <1>        -0.007830 
      3 C          -0.719994   -1.453864    1.226243 C.3       1 <1>        -0.043369 
      4 C           0.763223   -0.999546    1.277389 C.3       1 <1>        -0.048922 
      5 C           0.920005    0.520458    0.970717 C.3       1 <1>        -0.035539 
      6 C           0.281424    0.798462   -0.426010 C.3       1 <1>        -0.042424 
      7 C           2.394838    1.058453    1.150469 C.3       1 <1>        -0.034860 
      8 C           2.788280    1.070643    2.664018 C.3       1 <1>        -0.059810 
      9 C           2.512653    2.530053    0.640466 C.3       1 <1>        -0.059810 
     10 C           3.451882    0.202386    0.386566 C.3       1 <1>        -0.059810 
     11 C          -1.909176    0.804781   -1.760930 C.2       1 <1>        -0.075794 
     12 C          -3.026208    1.546744   -1.710974 C.2       1 <1>        -0.099420 
     13 C          -1.334615    0.455535   -3.117157 C.3       1 <1>        -0.043750 
     14 C          -0.800191   -2.155002   -1.248705 C.3       1 <1>        -0.055559 
     15 C          -2.869096   -1.513965   -0.028972 C.2       1 <1>        -0.084621 
     16 C          -3.363076   -2.714999    0.300998 C.2       1 <1>        -0.102094 
     17 H          -1.687271    0.845805    0.335977 H         1 <1>         0.035380 
     18 H          -0.764777   -2.523913    1.486357 H         1 <1>         0.027375 
     19 H          -1.279776   -0.906937    2.003254 H         1 <1>         0.027375 
     20 H           1.135146   -1.236093    2.284975 H         1 <1>         0.026837 
     21 H           1.337512   -1.602529    0.560173 H         1 <1>         0.026837 
     22 H           0.303968    1.068336    1.703400 H         1 <1>         0.030604 
     23 H           0.247118    1.880233   -0.628650 H         1 <1>         0.027406 
     24 H           0.902449    0.336010   -1.201725 H         1 <1>         0.027406 
     25 H           2.837384    0.059796    3.091394 H         1 <1>         0.023499 
     26 H           3.782380    1.522362    2.807036 H         1 <1>         0.023499 
     27 H           2.065410    1.658471    3.251071 H         1 <1>         0.023499 
     28 H           1.724729    3.157075    1.084631 H         1 <1>         0.023499 
     29 H           3.485903    2.969296    0.910146 H         1 <1>         0.023499 
     30 H           2.438210    2.584500   -0.455860 H         1 <1>         0.023499 
     31 H           3.536937   -0.809537    0.808553 H         1 <1>         0.023499 
     32 H           3.204498    0.115755   -0.680894 H         1 <1>         0.023499 
     33 H           4.447077    0.668128    0.462411 H         1 <1>         0.023499 
     34 H          -3.511967    1.881375   -2.626765 H         1 <1>         0.053441 
     35 H          -3.495114    1.845655   -0.773965 H         1 <1>         0.053441 
     36 H          -0.366885   -0.059097   -3.088316 H         1 <1>         0.027437 
     37 H          -2.050987   -0.186075   -3.652068 H         1 <1>         0.027437 
     38 H          -1.199145    1.380281   -3.699330 H         1 <1>         0.027437 
     39 H          -0.784764   -3.195416   -0.892948 H         1 <1>         0.023821 
     40 H          -1.424472   -2.129445   -2.153436 H         1 <1>         0.023821 
     41 H           0.228128   -1.897064   -1.531129 H         1 <1>         0.023821 
     42 H          -3.600942   -0.726450   -0.209113 H         1 <1>         0.057195 
     43 H          -4.441672   -2.863962    0.375425 H         1 <1>         0.053192 
     44 H          -2.734224   -3.580094    0.504953 H         1 <1>         0.053192 
@<TRIPOS>BOND
     1    1    2 1    
     2    1    6 1    
     3    1   11 1    
     4    1   17 1    
     5    2    3 1    
     6    2   14 1    
     7    2   15 1    
     8    3    4 1    
     9    3   18 1    
    10    3   19 1    
    11    4    5 1    
    12    4   20 1    
    13    4   21 1    
    14    5    6 1    
    15    5    7 1    
    16    5   22 1    
    17    6   23 1    
    18    6   24 1    
    19    7    8 1    
    20    7    9 1    
    21    7   10 1    
    22    8   25 1    
    23    8   26 1    
    24    8   27 1    
    25    9   28 1    
    26    9   29 1    
    27    9   30 1    
    28   10   31 1    
    29   10   32 1    
    30   10   33 1    
    31   11   12 2    
    32   11   13 1    
    33   12   34 1    
    34   12   35 1    
    35   13   36 1    
    36   13   37 1    
    37   13   38 1    
    38   14   39 1    
    39   14   40 1    
    40   14   41 1    
    41   15   16 2    
    42   15   42 1    
    43   16   43 1    
    44   16   44 1    
@<TRIPOS>SUBSTRUCTURE
     1 ****        1 TEMP              0 ****  ****    0 ROOT 
@<TRIPOS>NORMAL
@<TRIPOS>FF_PBC
FORCE_FIELD_SETUP_FEATURE Force Field Setup information
v1.0  0 0.000000 0.000000 0.000000 0.000000 0.000000 0.000000 NONE 0 0 0 0 1 0 0 0 0 0 0 0 0
