@<TRIPOS>MOLECULE
MOL002186
   40    43     1     1     0
SMALL
GASTEIGER


@<TRIPOS>ATOM
      1 C          -0.064853   -2.345134    0.383548 C.3       1 <1>         0.095891 
      2 C          -1.005701   -1.123885    0.569666 C.3       1 <1>        -0.006346 
      3 C          -0.680180   -3.732159    0.866615 C.3       1 <1>         0.077746 
      4 O          -0.460522   -3.374047   -0.478281 O.3       1 <1>        -0.367961 
      5 C           1.443568   -2.230516    0.733905 C.3       1 <1>        -0.021022 
      6 C          -0.585224    0.054710   -0.351481 C.3       1 <1>        -0.029343 
      7 C          -2.500463   -1.335948    0.224927 C.3       1 <1>        -0.046998 
      8 C           2.163301   -1.056875    0.014277 C.3       1 <1>        -0.046748 
      9 C           0.418251    0.953042    0.421393 C.3       1 <1>        -0.028877 
     10 C          -1.907439    0.780930   -0.757096 C.3       1 <1>        -0.040416 
     11 C          -3.004765    0.120702    0.111146 C.3       1 <1>        -0.049840 
     12 C           1.810134    0.309567    0.665802 C.3       1 <1>        -0.031925 
     13 C           1.688343    1.590467   -0.203301 C.3       1 <1>        -0.028416 
     14 C          -1.891105    2.329738   -0.652581 C.3       1 <1>        -0.062145 
     15 C           2.175191    2.889658    0.492927 C.3       1 <1>        -0.059280 
     16 C           1.938797    1.546626   -1.736646 C.3       1 <1>        -0.059280 
     17 H          -0.953803   -0.831249    1.631881 H         1 <1>         0.033212 
     18 H          -0.173127   -0.385563   -1.267894 H         1 <1>         0.030985 
     19 H           0.036855    1.428054    1.339476 H         1 <1>         0.031172 
     20 H           2.181001    0.456336    1.693969 H         1 <1>         0.030897 
     21 H          -1.758761   -3.918268    0.961187 H         1 <1>         0.058877 
     22 H          -0.033598   -4.595983    1.081799 H         1 <1>         0.058877 
     23 H           1.544570   -2.121486    1.825094 H         1 <1>         0.029383 
     24 H           1.940971   -3.168870    0.437046 H         1 <1>         0.029383 
     25 H          -2.603902   -1.850829   -0.744598 H         1 <1>         0.026901 
     26 H          -3.058225   -1.892183    0.995372 H         1 <1>         0.026901 
     27 H           1.986083   -1.134387   -1.065285 H         1 <1>         0.026909 
     28 H           3.250110   -1.171338    0.159813 H         1 <1>         0.026909 
     29 H          -2.144094    0.532624   -1.809568 H         1 <1>         0.030098 
     30 H          -3.029726    0.583547    1.111709 H         1 <1>         0.026804 
     31 H          -4.009897    0.190803   -0.336556 H         1 <1>         0.026804 
     32 H          -2.837614    2.738519   -1.039665 H         1 <1>         0.023250 
     33 H          -1.061862    2.737851   -1.250890 H         1 <1>         0.023250 
     34 H          -1.778403    2.666673    0.387932 H         1 <1>         0.023250 
     35 H           3.252739    3.012580    0.308018 H         1 <1>         0.023516 
     36 H           1.640052    3.749853    0.063661 H         1 <1>         0.023516 
     37 H           2.007120    2.888095    1.580672 H         1 <1>         0.023516 
     38 H           1.456104    0.739932   -2.296518 H         1 <1>         0.023516 
     39 H           3.024099    1.474655   -1.901077 H         1 <1>         0.023516 
     40 H           1.586067    2.494063   -2.170301 H         1 <1>         0.023516 
@<TRIPOS>BOND
     1    1    2 1    
     2    1    3 1    
     3    1    4 1    
     4    1    5 1    
     5    2    6 1    
     6    2    7 1    
     7    2   17 1    
     8    3    4 1    
     9    3   21 1    
    10    3   22 1    
    11    5    8 1    
    12    5   23 1    
    13    5   24 1    
    14    6    9 1    
    15    6   10 1    
    16    6   18 1    
    17    7   11 1    
    18    7   25 1    
    19    7   26 1    
    20    8   12 1    
    21    8   27 1    
    22    8   28 1    
    23    9   12 1    
    24    9   13 1    
    25    9   19 1    
    26   10   11 1    
    27   10   14 1    
    28   10   29 1    
    29   11   30 1    
    30   11   31 1    
    31   12   13 1    
    32   12   20 1    
    33   13   15 1    
    34   13   16 1    
    35   14   32 1    
    36   14   33 1    
    37   14   34 1    
    38   15   35 1    
    39   15   36 1    
    40   15   37 1    
    41   16   38 1    
    42   16   39 1    
    43   16   40 1    
@<TRIPOS>SUBSTRUCTURE
     1 ****        1 TEMP              0 ****  ****    0 ROOT 
@<TRIPOS>NORMAL
@<TRIPOS>FF_PBC
FORCE_FIELD_SETUP_FEATURE Force Field Setup information
v1.0  0 0.000000 0.000000 0.000000 0.000000 0.000000 0.000000 NONE 0 0 0 0 1 0 0 0 0 0 0 0 0
