@<TRIPOS>MOLECULE
MOL002171
   17    18     1     1     0
SMALL
GASTEIGER


@<TRIPOS>ATOM
      1 C           0.396464    0.589213   -0.196198 C.ar      1 <1>         0.176018 
      2 C          -0.051641   -0.771541    0.122465 C.ar      1 <1>         0.383315 
      3 N          -0.644942    1.354915   -0.003339 N.ar      1 <1>        -0.153265 
      4 C           1.690078    0.891612   -0.610573 C.ar      1 <1>        -0.026808 
      5 O          -1.390679   -0.813585    0.513602 O.2       1 <1>        -0.187596 
      6 C           0.826878   -1.845075    0.019397 C.ar      1 <1>         0.044827 
      7 C          -1.660332    0.592950    0.395058 C.ar      1 <1>         0.428713 
      8 C           2.646199   -0.237395   -0.728234 C.ar      1 <1>        -0.059156 
      9 C           2.221351   -1.579277   -0.418894 C.ar      1 <1>        -0.052744 
     10 C          -3.029146    1.193160    0.705200 C.3       1 <1>         0.072773 
     11 H           1.984515    1.911030   -0.837429 H         1 <1>         0.064180 
     12 H           0.497299   -2.851382    0.254537 H         1 <1>         0.071200 
     13 H           3.666884   -0.050070   -1.048032 H         1 <1>         0.061830 
     14 H           2.924306   -2.402317   -0.506381 H         1 <1>         0.062052 
     15 H          -3.723515    0.398502    1.015938 H         1 <1>         0.038221 
     16 H          -3.422723    1.690261   -0.193635 H         1 <1>         0.038221 
     17 H          -2.930494    1.928999    1.516818 H         1 <1>         0.038221 
@<TRIPOS>BOND
     1    1    2 1    
     2    1    3 1    
     3    1    4 2    
     4    2    5 1    
     5    2    6 2    
     6    3    7 2    
     7    4    8 1    
     8    4   11 1    
     9    5    7 1    
    10    6    9 1    
    11    6   12 1    
    12    7   10 1    
    13    8    9 2    
    14    8   13 1    
    15    9   14 1    
    16   10   15 1    
    17   10   16 1    
    18   10   17 1    
@<TRIPOS>SUBSTRUCTURE
     1 ****        1 TEMP              0 ****  ****    0 ROOT 
@<TRIPOS>NORMAL
@<TRIPOS>FF_PBC
FORCE_FIELD_SETUP_FEATURE Force Field Setup information
v1.0  0 0.000000 0.000000 0.000000 0.000000 0.000000 0.000000 NONE 0 0 0 0 1 0 0 0 0 0 0 0 0
