@<TRIPOS>MOLECULE
MOL003686
   76    80     1     1     0
SMALL
GASTEIGER


@<TRIPOS>ATOM
      1 O           0.569513   -0.404915    1.744336 O.3       1 <1>        -0.340154 
      2 O           0.515487    2.327216    1.406538 O.3       1 <1>        -0.346051 
      3 O          -1.616903    3.148923    0.790103 O.3       1 <1>        -0.343081 
      4 O           2.599152    1.515547    4.208327 O.3       1 <1>        -0.386488 
      5 O           4.476751   -0.475183    3.282777 O.3       1 <1>        -0.386401 
      6 O           0.917978   -2.298535    0.544359 O.3       1 <1>        -0.306082 
      7 O           3.358774   -2.869090    2.036651 O.3       1 <1>        -0.384091 
      8 O          -0.217652    5.330395   -0.647275 O.3       1 <1>        -0.384104 
      9 O           0.640438    3.576797   -2.718281 O.3       1 <1>        -0.386402 
     10 O          -1.346536    1.440018   -2.529278 O.3       1 <1>        -0.386579 
     11 O          -1.750827   -2.287055   -1.812530 O.3       1 <1>        -0.305121 
     12 O          -1.442834   -2.285019    2.223225 O.2       1 <1>        -0.284261 
     13 O          -3.927683   -1.480428    2.512822 O.3       1 <1>        -0.358954 
     14 O          -6.534461   -1.222571   -1.690421 O.3       1 <1>        -0.359667 
     15 O           3.769000   -0.283286   -2.794773 O.3       1 <1>        -0.345330 
     16 O           4.218810   -2.424215   -4.549558 O.3       1 <1>        -0.357268 
     17 C           0.803096    0.426471    2.893494 C.3       1 <1>         0.113377 
     18 C           2.322572    0.674011    3.070566 C.3       1 <1>         0.111906 
     19 C           3.055011   -0.686894    3.198074 C.3       1 <1>         0.114074 
     20 C           2.714659   -1.579086    1.975191 C.3       1 <1>         0.134513 
     21 C           0.353378    4.044726   -0.326959 C.3       1 <1>         0.134110 
     22 C          -0.232685    3.485293    0.991268 C.3       1 <1>         0.187899 
     23 C           0.161450    3.019375   -1.478562 C.3       1 <1>         0.113972 
     24 C          -1.312166    2.531117   -1.584558 C.3       1 <1>         0.109478 
     25 C           1.177770   -1.706854    1.826709 C.3       1 <1>         0.193914 
     26 C           0.051379    1.756819    2.650823 C.3       1 <1>         0.079556 
     27 C          -1.809654    2.090952   -0.176819 C.3       1 <1>         0.087307 
     28 C          -3.328197    1.768638   -0.143874 C.3       1 <1>        -0.036060 
     29 C          -0.353672   -2.257312    0.096613 C.2       1 <1>         0.157591 
     30 C          -0.538039   -2.312147   -1.232346 C.2       1 <1>         0.124041 
     31 C          -1.517452   -2.153572    1.011393 C.2       1 <1>         0.223405 
     32 C          -2.857135   -1.890183    0.382132 C.ar      1 <1>         0.084562 
     33 C           0.688459   -2.365686   -2.116770 C.ar      1 <1>         0.010746 
     34 C          -2.908598   -1.997948   -1.087160 C.ar      1 <1>         0.099001 
     35 C          -4.003503   -1.568431    1.120966 C.ar      1 <1>         0.088401 
     36 C          -4.121705   -1.803308   -1.754898 C.ar      1 <1>        -0.000529 
     37 C           1.620294   -1.323275   -2.024778 C.ar      1 <1>        -0.019439 
     38 C           0.915882   -3.478857   -3.067308 C.ar      1 <1>        -0.049435 
     39 C          -5.281230   -1.325417    0.405252 C.ar      1 <1>        -0.001302 
     40 C          -5.344853   -1.446218   -0.994419 C.ar      1 <1>         0.077519 
     41 C           2.840023   -1.326887   -2.865630 C.ar      1 <1>         0.106041 
     42 C           2.076224   -3.490109   -3.856969 C.ar      1 <1>        -0.028761 
     43 C           3.067686   -2.391079   -3.755900 C.ar      1 <1>         0.102473 
     44 C           4.300803    0.056552   -1.504046 C.3       1 <1>         0.043136 
     45 H           0.393427   -0.055667    3.796008 H         1 <1>         0.064677 
     46 H           2.708589    1.189117    2.175077 H         1 <1>         0.064673 
     47 H           2.705150   -1.201462    4.108166 H         1 <1>         0.064758 
     48 H           3.087967   -1.082893    1.067343 H         1 <1>         0.067108 
     49 H           1.435448    4.203836   -0.179904 H         1 <1>         0.067095 
     50 H          -0.159794    4.278152    1.754570 H         1 <1>         0.093739 
     51 H           0.784283    2.134261   -1.267235 H         1 <1>         0.064757 
     52 H          -1.934508    3.366155   -1.947336 H         1 <1>         0.064584 
     53 H           0.817906   -2.317754    2.670438 H         1 <1>         0.094163 
     54 H           0.232154    2.451533    3.486194 H         1 <1>         0.058744 
     55 H          -1.027275    1.524499    2.609974 H         1 <1>         0.058744 
     56 H          -1.262547    1.174980    0.114584 H         1 <1>         0.062075 
     57 H          -3.622237    1.506990    0.885361 H         1 <1>         0.025536 
     58 H          -3.579511    0.918445   -0.791796 H         1 <1>         0.025536 
     59 H          -3.914749    2.646697   -0.458346 H         1 <1>         0.025536 
     60 H           2.305105    1.153059    5.037424 H         1 <1>         0.210004 
     61 H           4.716887    0.096732    4.007709 H         1 <1>         0.210005 
     62 H           3.125631   -3.380210    2.804007 H         1 <1>         0.210111 
     63 H          -1.165299    5.302861   -0.718757 H         1 <1>         0.210110 
     64 H           0.162697    4.361333   -2.969762 H         1 <1>         0.210005 
     65 H          -2.220401    1.115775   -2.726070 H         1 <1>         0.210002 
     66 H          -4.157957   -1.906051   -2.832122 H         1 <1>         0.066947 
     67 H           1.433449   -0.509150   -1.334513 H         1 <1>         0.065083 
     68 H           0.186947   -4.280128   -3.147804 H         1 <1>         0.062506 
     69 H          -6.168380   -1.051952    0.965732 H         1 <1>         0.066923 
     70 H           2.256009   -4.304946   -4.550525 H         1 <1>         0.064422 
     71 H          -4.770208   -1.425239    2.947503 H         1 <1>         0.217342 
     72 H          -7.233037   -0.829668   -1.177535 H         1 <1>         0.217316 
     73 H           4.718314   -1.614714   -4.477344 H         1 <1>         0.217422 
     74 H           5.058613    0.838181   -1.652510 H         1 <1>         0.052871 
     75 H           3.534372    0.452417   -0.825064 H         1 <1>         0.052871 
     76 H           4.783752   -0.813276   -1.035372 H         1 <1>         0.052871 
@<TRIPOS>BOND
     1    1   17 1    
     2   25    1 1    
     3    2   22 1    
     4   26    2 1    
     5   22    3 1    
     6    3   27 1    
     7   18    4 1    
     8    4   60 1    
     9   19    5 1    
    10    5   61 1    
    11    6   25 1    
    12   29    6 1    
    13   20    7 1    
    14    7   62 1    
    15   21    8 1    
    16    8   63 1    
    17   23    9 1    
    18    9   64 1    
    19   24   10 1    
    20   10   65 1    
    21   30   11 1    
    22   11   34 1    
    23   31   12 2    
    24   35   13 1    
    25   13   71 1    
    26   40   14 1    
    27   14   72 1    
    28   41   15 1    
    29   15   44 1    
    30   43   16 1    
    31   16   73 1    
    32   17   18 1    
    33   17   26 1    
    34   17   45 1    
    35   19   18 1    
    36   18   46 1    
    37   20   19 1    
    38   19   47 1    
    39   25   20 1    
    40   20   48 1    
    41   22   21 1    
    42   21   23 1    
    43   21   49 1    
    44   22   50 1    
    45   23   24 1    
    46   23   51 1    
    47   27   24 1    
    48   24   52 1    
    49   25   53 1    
    50   26   54 1    
    51   26   55 1    
    52   27   28 1    
    53   27   56 1    
    54   28   57 1    
    55   28   58 1    
    56   28   59 1    
    57   30   29 2    
    58   29   31 1    
    59   33   30 1    
    60   31   32 1    
    61   34   32 1    
    62   32   35 2    
    63   37   33 2    
    64   33   38 1    
    65   34   36 2    
    66   35   39 1    
    67   36   40 1    
    68   36   66 1    
    69   41   37 1    
    70   37   67 1    
    71   38   42 2    
    72   38   68 1    
    73   40   39 2    
    74   39   69 1    
    75   41   43 2    
    76   42   43 1    
    77   42   70 1    
    78   44   74 1    
    79   44   75 1    
    80   44   76 1    
@<TRIPOS>SUBSTRUCTURE
     1 ****        8 TEMP              0 ****  ****    0 ROOT 
@<TRIPOS>NORMAL
@<TRIPOS>FF_PBC
FORCE_FIELD_SETUP_FEATURE Force Field Setup information
v1.0  0 0.000000 0.000000 0.000000 0.000000 0.000000 0.000000 NONE 0 0 0 0 1 0 0 0 0 0 0 0 0
