@<TRIPOS>MOLECULE
MOL000696
   29    29     1     1     0
SMALL
GASTEIGER


@<TRIPOS>ATOM
      1 C           1.671163    0.229980    0.971409 C.3       1 <1>         0.063372 
      2 C           0.384809    1.066004    1.236550 C.3       1 <1>        -0.023725 
      3 C           1.384855   -0.946676   -0.007141 C.3       1 <1>        -0.023725 
      4 C           2.210879   -0.332441    2.315582 C.3       1 <1>        -0.036079 
      5 O           2.737409    1.063557    0.479859 O.3       1 <1>        -0.388846 
      6 C          -0.317863    1.527232   -0.069219 C.3       1 <1>        -0.043941 
      7 C           0.684777   -0.489709   -1.315774 C.3       1 <1>        -0.043941 
      8 C          -0.587692    0.374315   -1.079051 C.3       1 <1>        -0.020232 
      9 C          -1.872523   -0.414591   -0.836985 C.2       1 <1>        -0.076608 
     10 C          -2.941771   -0.287325   -1.906529 C.3       1 <1>        -0.043777 
     11 C          -2.103770   -1.189658    0.232825 C.2       1 <1>        -0.099447 
     12 H          -0.321631    0.490080    1.848266 H         1 <1>         0.029291 
     13 H           0.661996    1.955962    1.825461 H         1 <1>         0.029291 
     14 H           2.343002   -1.427562   -0.264813 H         1 <1>         0.029291 
     15 H           0.771339   -1.710315    0.488253 H         1 <1>         0.029291 
     16 H           1.475125   -0.995737    2.795555 H         1 <1>         0.025721 
     17 H           3.135994   -0.903292    2.141908 H         1 <1>         0.025721 
     18 H           2.440083    0.493840    3.005944 H         1 <1>         0.025721 
     19 H           2.557660    1.487026   -0.349980 H         1 <1>         0.210147 
     20 H          -1.271755    2.023239    0.176298 H         1 <1>         0.027186 
     21 H           0.325696    2.284141   -0.547998 H         1 <1>         0.027186 
     22 H           1.414508    0.093919   -1.901553 H         1 <1>         0.027186 
     23 H           0.415563   -1.371054   -1.921499 H         1 <1>         0.027186 
     24 H          -0.753489    0.888440   -2.044002 H         1 <1>         0.034544 
     25 H          -3.848551   -0.872609   -1.691052 H         1 <1>         0.027436 
     26 H          -2.539659   -0.635110   -2.870311 H         1 <1>         0.027436 
     27 H          -3.239262    0.767871   -2.003934 H         1 <1>         0.027436 
     28 H          -3.043752   -1.728292    0.347490 H         1 <1>         0.053440 
     29 H          -1.405747   -1.343693    1.045938 H         1 <1>         0.053440 
@<TRIPOS>BOND
     1    1    2 1    
     2    1    3 1    
     3    1    4 1    
     4    1    5 1    
     5    2    6 1    
     6    2   12 1    
     7    2   13 1    
     8    3    7 1    
     9    3   14 1    
    10    3   15 1    
    11    4   16 1    
    12    4   17 1    
    13    4   18 1    
    14    5   19 1    
    15    6    8 1    
    16    6   20 1    
    17    6   21 1    
    18    7    8 1    
    19    7   22 1    
    20    7   23 1    
    21    8    9 1    
    22    8   24 1    
    23    9   10 1    
    24    9   11 2    
    25   10   25 1    
    26   10   26 1    
    27   10   27 1    
    28   11   28 1    
    29   11   29 1    
@<TRIPOS>SUBSTRUCTURE
     1 ****        1 TEMP              0 ****  ****    0 ROOT 
@<TRIPOS>NORMAL
@<TRIPOS>FF_PBC
FORCE_FIELD_SETUP_FEATURE Force Field Setup information
v1.0  0 0.000000 0.000000 0.000000 0.000000 0.000000 0.000000 NONE 0 0 0 0 1 0 0 0 0 0 0 0 0
