@<TRIPOS>MOLECULE
MOL001801
   16    16     1     1     0
SMALL
GASTEIGER


@<TRIPOS>ATOM
      1 C           1.076645    1.816833   -0.482528 C.2       1 <1>         0.293733 
      2 C           0.156794    0.654077   -0.174082 C.ar      1 <1>         0.075897 
      3 C           0.711606   -0.676998    0.181451 C.ar      1 <1>         0.085424 
      4 O           2.096243   -0.859225    0.232120 O.3       1 <1>        -0.359053 
      5 C          -0.180341   -1.756524    0.467747 C.ar      1 <1>        -0.031168 
      6 C          -1.646907   -1.552643    0.411191 C.ar      1 <1>        -0.059287 
      7 C          -2.168348   -0.295606    0.075447 C.ar      1 <1>        -0.060861 
      8 C          -1.254887    0.832192   -0.223684 C.ar      1 <1>        -0.046383 
      9 O           0.593482    2.901175   -0.772211 O.2       1 <1>        -0.259338 
     10 O           2.403094    1.667792   -0.440799 O.3       1 <1>        -0.327427 
     11 H           2.371865   -1.737831    0.466821 H         1 <1>         0.217341 
     12 H           0.205948   -2.735716    0.729252 H         1 <1>         0.064341 
     13 H          -2.316138   -2.378898    0.630339 H         1 <1>         0.061837 
     14 H          -3.242714   -0.145532    0.033828 H         1 <1>         0.061780 
     15 H          -1.676163    1.798354   -0.481771 H         1 <1>         0.062608 
     16 H           2.869721    2.468352   -0.653422 H         1 <1>         0.220556 
@<TRIPOS>BOND
     1    1    2 1    
     2    1    9 2    
     3    1   10 1    
     4    2    3 1    
     5    2    8 2    
     6    3    4 1    
     7    3    5 2    
     8    4   11 1    
     9    5    6 1    
    10    5   12 1    
    11    6    7 2    
    12    6   13 1    
    13    7    8 1    
    14    7   14 1    
    15    8   15 1    
    16   10   16 1    
@<TRIPOS>SUBSTRUCTURE
     1 ****        1 TEMP              0 ****  ****    0 ROOT 
@<TRIPOS>NORMAL
@<TRIPOS>FF_PBC
FORCE_FIELD_SETUP_FEATURE Force Field Setup information
v1.0  0 0.000000 0.000000 0.000000 0.000000 0.000000 0.000000 NONE 0 0 0 0 1 0 0 0 0 0 0 0 0
