@<TRIPOS>MOLECULE
MOL005278
   44    43     1     1     0
SMALL
GASTEIGER


@<TRIPOS>ATOM
      1 C          -1.259728    1.766571    0.105039 C.3       1 <1>        -0.053049 
      2 C           0.034213    0.906513    0.101456 C.3       1 <1>        -0.053057 
      3 C          -0.930287    3.283633    0.029406 C.3       1 <1>        -0.052824 
      4 C          -0.289552   -0.612026    0.151636 C.3       1 <1>        -0.053057 
      5 C          -2.223820    4.145579    0.012040 C.3       1 <1>        -0.050709 
      6 C           1.008513   -1.465374    0.138754 C.3       1 <1>        -0.053057 
      7 C          -1.957582    5.680311    0.081420 C.3       1 <1>        -0.046721 
      8 C           0.690799   -2.985801    0.158996 C.3       1 <1>        -0.053057 
      9 C          -1.133821    6.195862   -1.132404 C.3       1 <1>        -0.062665 
     10 C          -3.309299    6.445438    0.157944 C.3       1 <1>        -0.062665 
     11 C           1.991988   -3.834324    0.140583 C.3       1 <1>        -0.053065 
     12 C           1.678517   -5.355702    0.138487 C.3       1 <1>        -0.053306 
     13 C           2.981400   -6.201017    0.118342 C.3       1 <1>        -0.055911 
     14 C           2.668821   -7.720070    0.106100 C.3       1 <1>        -0.065276 
     15 H          -1.885338    1.488272   -0.759187 H         1 <1>         0.026529 
     16 H          -1.830205    1.558049    1.025155 H         1 <1>         0.026529 
     17 H           0.653418    1.176873    0.972680 H         1 <1>         0.026528 
     18 H           0.611677    1.122489   -0.812526 H         1 <1>         0.026528 
     19 H          -0.312537    3.566846    0.897274 H         1 <1>         0.026537 
     20 H          -0.347337    3.460633   -0.887686 H         1 <1>         0.026537 
     21 H          -0.909911   -0.879865   -0.719424 H         1 <1>         0.026528 
     22 H          -0.863953   -0.834162    1.066036 H         1 <1>         0.026528 
     23 H          -2.801492    3.913776   -0.897386 H         1 <1>         0.026777 
     24 H          -2.835710    3.860711    0.883724 H         1 <1>         0.026777 
     25 H           1.622063   -1.208675    1.018055 H         1 <1>         0.026528 
     26 H           1.589530   -1.229505   -0.767993 H         1 <1>         0.026528 
     27 H          -1.391767    5.900901    1.004036 H         1 <1>         0.029548 
     28 H           0.077902   -3.240680   -0.721262 H         1 <1>         0.026528 
     29 H           0.110467   -3.226063    1.065079 H         1 <1>         0.026528 
     30 H          -1.052964    7.293527   -1.102039 H         1 <1>         0.023233 
     31 H          -0.111093    5.791577   -1.124140 H         1 <1>         0.023233 
     32 H          -1.622030    5.908858   -2.076293 H         1 <1>         0.023233 
     33 H          -3.137689    7.529173    0.252403 H         1 <1>         0.023233 
     34 H          -3.893848    6.116252    1.031212 H         1 <1>         0.023233 
     35 H          -3.904266    6.263952   -0.750427 H         1 <1>         0.023233 
     36 H           2.599802   -3.588216    1.026846 H         1 <1>         0.026528 
     37 H           2.577179   -3.583905   -0.759580 H         1 <1>         0.026528 
     38 H           1.072331   -5.601773   -0.748935 H         1 <1>         0.026520 
     39 H           1.093338   -5.609627    1.037669 H         1 <1>         0.026520 
     40 H           3.588256   -5.965112    1.008493 H         1 <1>         0.026265 
     41 H           3.571897   -5.948484   -0.778266 H         1 <1>         0.026265 
     42 H           3.605483   -8.299654    0.093065 H         1 <1>         0.022978 
     43 H           2.081401   -7.984348   -0.787051 H         1 <1>         0.022978 
     44 H           2.095234   -8.001715    1.002866 H         1 <1>         0.022978 
@<TRIPOS>BOND
     1    1    2 1    
     2    1    3 1    
     3    1   15 1    
     4    1   16 1    
     5    2    4 1    
     6    2   17 1    
     7    2   18 1    
     8    3    5 1    
     9    3   19 1    
    10    3   20 1    
    11    4    6 1    
    12    4   21 1    
    13    4   22 1    
    14    5    7 1    
    15    5   23 1    
    16    5   24 1    
    17    6    8 1    
    18    6   25 1    
    19    6   26 1    
    20    7    9 1    
    21    7   10 1    
    22    7   27 1    
    23    8   11 1    
    24    8   28 1    
    25    8   29 1    
    26    9   30 1    
    27    9   31 1    
    28    9   32 1    
    29   10   33 1    
    30   10   34 1    
    31   10   35 1    
    32   11   12 1    
    33   11   36 1    
    34   11   37 1    
    35   12   13 1    
    36   12   38 1    
    37   12   39 1    
    38   13   14 1    
    39   13   40 1    
    40   13   41 1    
    41   14   42 1    
    42   14   43 1    
    43   14   44 1    
@<TRIPOS>SUBSTRUCTURE
     1 ****        1 TEMP              0 ****  ****    0 ROOT 
@<TRIPOS>NORMAL
@<TRIPOS>FF_PBC
FORCE_FIELD_SETUP_FEATURE Force Field Setup information
v1.0  0 0.000000 0.000000 0.000000 0.000000 0.000000 0.000000 NONE 0 0 0 0 1 0 0 0 0 0 0 0 0
