@<TRIPOS>MOLECULE
MOL005299
   47    46     1     1     0
SMALL
GASTEIGER


@<TRIPOS>ATOM
      1 C           0.062186   -2.887526    0.317310 C.3       1 <1>        -0.050459 
      2 C          -1.240226   -3.746151    0.392860 C.3       1 <1>        -0.043880 
      3 C          -0.169564   -1.351783    0.316813 C.3       1 <1>        -0.052815 
      4 C          -2.231250   -3.478207   -0.786687 C.3       1 <1>        -0.050468 
      5 C          -0.838954   -5.250503    0.426575 C.3       1 <1>        -0.062415 
      6 C           1.174696   -0.575550    0.392688 C.3       1 <1>        -0.053048 
      7 C          -3.356421   -2.461068   -0.434498 C.3       1 <1>        -0.053064 
      8 C           0.945061    0.960920    0.375103 C.3       1 <1>        -0.053057 
      9 C          -4.268522   -2.180810   -1.660669 C.3       1 <1>        -0.055903 
     10 C           2.291175    1.734199    0.432707 C.3       1 <1>        -0.053057 
     11 C          -5.405066   -1.186713   -1.305507 C.3       1 <1>        -0.065276 
     12 C           2.064020    3.270783    0.418712 C.3       1 <1>        -0.053065 
     13 C           3.411720    4.042347    0.456217 C.3       1 <1>        -0.053306 
     14 C           3.185050    5.578779    0.445790 C.3       1 <1>        -0.055911 
     15 C           4.531569    6.348096    0.472780 C.3       1 <1>        -0.065276 
     16 H           0.689040   -3.133353    1.190507 H         1 <1>         0.026785 
     17 H           0.627587   -3.160775   -0.588593 H         1 <1>         0.026785 
     18 H          -1.747603   -3.530768    1.349248 H         1 <1>         0.029813 
     19 H          -0.681581   -1.053344   -0.611290 H         1 <1>         0.026537 
     20 H          -0.796884   -1.075102    1.179787 H         1 <1>         0.026537 
     21 H          -2.746145   -4.412260   -1.065233 H         1 <1>         0.026785 
     22 H          -1.670885   -3.144938   -1.674337 H         1 <1>         0.026785 
     23 H          -1.725574   -5.887627    0.572950 H         1 <1>         0.023242 
     24 H          -0.140504   -5.453972    1.253374 H         1 <1>         0.023242 
     25 H          -0.354149   -5.537128   -0.519539 H         1 <1>         0.023242 
     26 H           1.706432   -0.849950    1.318708 H         1 <1>         0.026529 
     27 H           1.806707   -0.859635   -0.464974 H         1 <1>         0.026529 
     28 H          -2.937118   -1.507775   -0.084258 H         1 <1>         0.026528 
     29 H          -3.971701   -2.874794    0.381927 H         1 <1>         0.026528 
     30 H           0.406160    1.239181   -0.545558 H         1 <1>         0.026528 
     31 H           0.322241    1.246002    1.238990 H         1 <1>         0.026528 
     32 H          -4.715655   -3.124551   -2.015308 H         1 <1>         0.026265 
     33 H          -3.663526   -1.756747   -2.479560 H         1 <1>         0.026265 
     34 H           2.833810    1.454815    1.350838 H         1 <1>         0.026528 
     35 H           2.910253    1.450032   -0.434119 H         1 <1>         0.026528 
     36 H          -6.037130   -1.002441   -2.188691 H         1 <1>         0.022978 
     37 H          -4.985056   -0.225814   -0.969383 H         1 <1>         0.022978 
     38 H          -6.037151   -1.596751   -0.502372 H         1 <1>         0.022978 
     39 H           1.511412    3.549318   -0.493662 H         1 <1>         0.026528 
     40 H           1.455036    3.556806    1.292063 H         1 <1>         0.026528 
     41 H           3.967680    3.762973    1.366344 H         1 <1>         0.026520 
     42 H           4.018472    3.758944   -0.419589 H         1 <1>         0.026520 
     43 H           2.626314    5.863762   -0.461352 H         1 <1>         0.026265 
     44 H           2.586250    5.869384    1.325189 H         1 <1>         0.026265 
     45 H           4.347852    7.434271    0.467290 H         1 <1>         0.022978 
     46 H           5.101461    6.094034    1.380207 H         1 <1>         0.022978 
     47 H           5.138583    6.091490   -0.409501 H         1 <1>         0.022978 
@<TRIPOS>BOND
     1    1    2 1    
     2    1    3 1    
     3    1   16 1    
     4    1   17 1    
     5    2    4 1    
     6    2    5 1    
     7    2   18 1    
     8    3    6 1    
     9    3   19 1    
    10    3   20 1    
    11    4    7 1    
    12    4   21 1    
    13    4   22 1    
    14    5   23 1    
    15    5   24 1    
    16    5   25 1    
    17    6    8 1    
    18    6   26 1    
    19    6   27 1    
    20    7    9 1    
    21    7   28 1    
    22    7   29 1    
    23    8   10 1    
    24    8   30 1    
    25    8   31 1    
    26    9   11 1    
    27    9   32 1    
    28    9   33 1    
    29   10   12 1    
    30   10   34 1    
    31   10   35 1    
    32   11   36 1    
    33   11   37 1    
    34   11   38 1    
    35   12   13 1    
    36   12   39 1    
    37   12   40 1    
    38   13   14 1    
    39   13   41 1    
    40   13   42 1    
    41   14   15 1    
    42   14   43 1    
    43   14   44 1    
    44   15   45 1    
    45   15   46 1    
    46   15   47 1    
@<TRIPOS>SUBSTRUCTURE
     1 ****        1 TEMP              0 ****  ****    0 ROOT 
@<TRIPOS>NORMAL
@<TRIPOS>FF_PBC
FORCE_FIELD_SETUP_FEATURE Force Field Setup information
v1.0  0 0.000000 0.000000 0.000000 0.000000 0.000000 0.000000 NONE 0 0 0 0 1 0 0 0 0 0 0 0 0
