@<TRIPOS>MOLECULE
MOL001385
   28    27     1     1     0
SMALL
GASTEIGER


@<TRIPOS>ATOM
      1 C           4.916368    0.281858    0.000161 C.2       1 <1>         0.259588 
      2 C           3.645751   -0.530407   -0.000261 C.3       1 <1>         0.033006 
      3 C           2.356125    0.335373    0.000153 C.3       1 <1>        -0.044061 
      4 C           1.078772   -0.548678   -0.000080 C.3       1 <1>        -0.052596 
      5 C          -0.208917    0.320145    0.000186 C.3       1 <1>        -0.053035 
      6 C          -1.488520   -0.560551   -0.000070 C.3       1 <1>        -0.052682 
      7 C          -2.774210    0.311280    0.000175 C.3       1 <1>        -0.046641 
      8 C          -4.054177   -0.567383   -0.000268 C.3       1 <1>         0.002777 
      9 C          -5.312039    0.262307    0.000044 C.2       1 <1>         0.120308 
     10 O           6.010321   -0.260926    0.001029 O.2       1 <1>        -0.265177 
     11 O           4.781296    1.610036   -0.000478 O.3       1 <1>        -0.331267 
     12 O          -6.400746   -0.288717    0.001221 O.2       1 <1>        -0.301035 
     13 H           3.658047   -1.174256   -0.893568 H         1 <1>         0.036600 
     14 H           3.657995   -1.175067    0.892447 H         1 <1>         0.036600 
     15 H           2.354255    0.980546    0.894431 H         1 <1>         0.027004 
     16 H           2.354113    0.981146   -0.893706 H         1 <1>         0.027004 
     17 H           1.082468   -1.194459   -0.893690 H         1 <1>         0.026540 
     18 H           1.082495   -1.194935    0.893176 H         1 <1>         0.026540 
     19 H          -0.211796    0.966039    0.893684 H         1 <1>         0.026529 
     20 H          -0.211805    0.966515   -0.892955 H         1 <1>         0.026529 
     21 H          -1.486180   -1.206489   -0.893574 H         1 <1>         0.026539 
     22 H          -1.486194   -1.206972    0.893076 H         1 <1>         0.026539 
     23 H          -2.778939    0.956468    0.894453 H         1 <1>         0.026918 
     24 H          -2.778798    0.957090   -0.893671 H         1 <1>         0.026918 
     25 H          -4.065116   -1.211120   -0.894130 H         1 <1>         0.033871 
     26 H          -4.065137   -1.211852    0.893054 H         1 <1>         0.033871 
     27 H          -5.279390    1.351803   -0.000805 H         1 <1>         0.102608 
     28 H           5.623860    2.051009   -0.000138 H         1 <1>         0.220208 
@<TRIPOS>BOND
     1    1    2 1    
     2    1   10 2    
     3    1   11 1    
     4    2    3 1    
     5    2   13 1    
     6    2   14 1    
     7    3    4 1    
     8    3   15 1    
     9    3   16 1    
    10    4    5 1    
    11    4   17 1    
    12    4   18 1    
    13    5    6 1    
    14    5   19 1    
    15    5   20 1    
    16    6    7 1    
    17    6   21 1    
    18    6   22 1    
    19    7    8 1    
    20    7   23 1    
    21    7   24 1    
    22    8    9 1    
    23    8   25 1    
    24    8   26 1    
    25    9   12 2    
    26    9   27 1    
    27   11   28 1    
@<TRIPOS>SUBSTRUCTURE
     1 ****        1 TEMP              0 ****  ****    0 ROOT 
@<TRIPOS>NORMAL
@<TRIPOS>FF_PBC
FORCE_FIELD_SETUP_FEATURE Force Field Setup information
v1.0  0 0.000000 0.000000 0.000000 0.000000 0.000000 0.000000 NONE 0 0 0 0 1 0 0 0 0 0 0 0 0
