@<TRIPOS>MOLECULE
MOL000938
   39    41     1     1     0
SMALL
GASTEIGER


@<TRIPOS>ATOM
      1 C           0.912984   -0.829253   -0.514748 C.3       1 <1>        -0.022953 
      2 C           2.212653    0.021417   -0.605955 C.3       1 <1>        -0.031186 
      3 C           2.127376    1.570703   -0.656032 C.3       1 <1>        -0.045709 
      4 C           0.784676    2.075510   -1.230941 C.3       1 <1>        -0.030930 
      5 C          -0.381932    1.395335   -0.546267 C.2       1 <1>        -0.066995 
      6 C          -1.283076    2.119094    0.136509 C.2       1 <1>        -0.084215 
      7 C          -2.476502    1.542233    0.851117 C.3       1 <1>        -0.034222 
      8 C          -2.796427    0.099945    0.394151 C.3       1 <1>        -0.046217 
      9 C          -1.486348   -0.726866    0.343683 C.3       1 <1>        -0.034224 
     10 C          -0.467356   -0.118455   -0.685219 C.3       1 <1>        -0.004917 
     11 C           1.822115   -0.670921    0.731296 C.3       1 <1>        -0.027866 
     12 C          -0.917930   -0.391069   -2.156886 C.3       1 <1>        -0.055317 
     13 C          -1.823579   -2.235596    0.153754 C.3       1 <1>        -0.061610 
     14 C           2.680581   -1.913623    1.090867 C.3       1 <1>        -0.059262 
     15 C           1.402505    0.195511    1.951441 C.3       1 <1>        -0.059262 
     16 H           1.009604   -1.812980   -1.000939 H         1 <1>         0.031730 
     17 H           3.039046   -0.457575   -1.156503 H         1 <1>         0.030923 
     18 H           2.935099    1.931777   -1.314563 H         1 <1>         0.027122 
     19 H           2.319370    2.017015    0.329771 H         1 <1>         0.027122 
     20 H           0.756999    3.171155   -1.112244 H         1 <1>         0.031025 
     21 H           0.751753    1.887356   -2.312791 H         1 <1>         0.031025 
     22 H          -1.172182    3.201766    0.210474 H         1 <1>         0.057180 
     23 H          -2.246805    1.552427    1.929051 H         1 <1>         0.030749 
     24 H          -3.361081    2.178614    0.682852 H         1 <1>         0.030749 
     25 H          -3.512867   -0.345344    1.104952 H         1 <1>         0.027105 
     26 H          -3.278404    0.113115   -0.594603 H         1 <1>         0.027105 
     27 H          -1.041220   -0.654244    1.345971 H         1 <1>         0.030662 
     28 H          -1.129602   -1.453450   -2.333999 H         1 <1>         0.023829 
     29 H          -0.126318   -0.129737   -2.872443 H         1 <1>         0.023829 
     30 H          -1.812549    0.189838   -2.423402 H         1 <1>         0.023829 
     31 H          -0.912282   -2.841777    0.049892 H         1 <1>         0.023268 
     32 H          -2.371532   -2.609334    1.033557 H         1 <1>         0.023268 
     33 H          -2.468533   -2.401931   -0.721058 H         1 <1>         0.023268 
     34 H           3.574729   -1.585316    1.641400 H         1 <1>         0.023516 
     35 H           2.089682   -2.579764    1.737029 H         1 <1>         0.023516 
     36 H           3.007359   -2.487218    0.210158 H         1 <1>         0.023516 
     37 H           0.698511    1.005239    1.727616 H         1 <1>         0.023516 
     38 H           0.944262   -0.455273    2.710633 H         1 <1>         0.023516 
     39 H           2.308325    0.635519    2.394404 H         1 <1>         0.023516 
@<TRIPOS>BOND
     1    1    2 1    
     2    1   10 1    
     3    1   11 1    
     4    1   16 1    
     5    2    3 1    
     6    2   11 1    
     7    2   17 1    
     8    3    4 1    
     9    3   18 1    
    10    3   19 1    
    11    4    5 1    
    12    4   20 1    
    13    4   21 1    
    14    5    6 2    
    15    5   10 1    
    16    6    7 1    
    17    6   22 1    
    18    7    8 1    
    19    7   23 1    
    20    7   24 1    
    21    8    9 1    
    22    8   25 1    
    23    8   26 1    
    24    9   10 1    
    25    9   13 1    
    26    9   27 1    
    27   10   12 1    
    28   11   14 1    
    29   11   15 1    
    30   12   28 1    
    31   12   29 1    
    32   12   30 1    
    33   13   31 1    
    34   13   32 1    
    35   13   33 1    
    36   14   34 1    
    37   14   35 1    
    38   14   36 1    
    39   15   37 1    
    40   15   38 1    
    41   15   39 1    
@<TRIPOS>SUBSTRUCTURE
     1 ****        1 TEMP              0 ****  ****    0 ROOT 
@<TRIPOS>NORMAL
@<TRIPOS>FF_PBC
FORCE_FIELD_SETUP_FEATURE Force Field Setup information
v1.0  0 0.000000 0.000000 0.000000 0.000000 0.000000 0.000000 NONE 0 0 0 0 1 0 0 0 0 0 0 0 0
