@<TRIPOS>MOLECULE
MOL004981
   42    44     1     1     0
SMALL
GASTEIGER


@<TRIPOS>ATOM
      1 O          -4.137993   -1.243939   -0.512378 O.3       1 <1>        -0.334125 
      2 O          -1.444353    2.681475    0.728324 O.3       1 <1>        -0.358451 
      3 O           1.034409    2.651981   -0.144034 O.2       1 <1>        -0.287193 
      4 O           8.649111   -1.401693    0.239290 O.3       1 <1>        -0.359832 
      5 C          -5.350365   -0.683108    0.030801 C.3       1 <1>         0.088837 
      6 C          -5.215872    0.705581    0.611525 C.2       1 <1>        -0.051917 
      7 C          -2.809574    0.699120    0.116904 C.ar      1 <1>         0.035179 
      8 C          -2.912541   -0.577985   -0.439847 C.ar      1 <1>         0.086898 
      9 C          -5.845611   -1.646741    1.139523 C.3       1 <1>        -0.031936 
     10 C          -6.371169   -0.636381   -1.134941 C.3       1 <1>        -0.031936 
     11 C          -4.052542    1.360639    0.657696 C.2       1 <1>        -0.050883 
     12 C          -1.499291    1.394359    0.182681 C.ar      1 <1>         0.092938 
     13 C          -1.698353   -1.239048   -0.969302 C.ar      1 <1>        -0.030225 
     14 C          -0.335239    0.747394   -0.291417 C.ar      1 <1>         0.052058 
     15 C          -0.456426   -0.602289   -0.901439 C.ar      1 <1>        -0.045979 
     16 C           1.011481    1.431368   -0.173154 C.2       1 <1>         0.188562 
     17 C           2.278622    0.676299   -0.068447 C.2       1 <1>        -0.013708 
     18 C           3.485944    1.258204   -0.130240 C.2       1 <1>        -0.050956 
     19 C           4.806020    0.522979    0.002018 C.ar      1 <1>        -0.024759 
     20 C           4.933766   -0.719094    0.630807 C.ar      1 <1>        -0.052161 
     21 C           6.021463    1.165709   -0.558539 C.ar      1 <1>        -0.052161 
     22 C           6.250240   -1.396019    0.715357 C.ar      1 <1>        -0.031383 
     23 C           7.268157    0.534927   -0.474528 C.ar      1 <1>        -0.031383 
     24 C           7.394655   -0.788278    0.175951 C.ar      1 <1>         0.072617 
     25 H          -6.109867    1.189150    1.009841 H         1 <1>         0.060053 
     26 H          -6.813968   -1.316837    1.545854 H         1 <1>         0.026052 
     27 H          -5.961747   -2.663416    0.734049 H         1 <1>         0.026052 
     28 H          -5.110257   -1.677341    1.958606 H         1 <1>         0.026052 
     29 H          -6.003018    0.045202   -1.917494 H         1 <1>         0.026052 
     30 H          -6.494028   -1.638498   -1.572986 H         1 <1>         0.026052 
     31 H          -7.352589   -0.279486   -0.788159 H         1 <1>         0.026052 
     32 H          -3.993022    2.362964    1.083763 H         1 <1>         0.062283 
     33 H          -1.786231   -2.225237   -1.415392 H         1 <1>         0.064368 
     34 H           0.414709   -1.103269   -1.310254 H         1 <1>         0.062621 
     35 H          -0.669172    3.175534    0.478368 H         1 <1>         0.217365 
     36 H           2.196609   -0.397629    0.069427 H         1 <1>         0.065602 
     37 H           3.539097    2.334821   -0.292177 H         1 <1>         0.062459 
     38 H           4.080027   -1.213659    1.076476 H         1 <1>         0.062423 
     39 H           5.947351    2.135501   -1.039425 H         1 <1>         0.062423 
     40 H           6.316104   -2.364813    1.199470 H         1 <1>         0.064338 
     41 H           8.152369    1.010407   -0.884695 H         1 <1>         0.064338 
     42 H           8.643596   -2.266955    0.631618 H         1 <1>         0.217313 
@<TRIPOS>BOND
     1    1    5 1    
     2    8    1 1    
     3   12    2 1    
     4    2   35 1    
     5   16    3 2    
     6   24    4 1    
     7    4   42 1    
     8    6    5 1    
     9    5    9 1    
    10    5   10 1    
    11   11    6 2    
    12    6   25 1    
    13    7    8 2    
    14    7   11 1    
    15   12    7 1    
    16   13    8 1    
    17    9   26 1    
    18    9   27 1    
    19    9   28 1    
    20   10   29 1    
    21   10   30 1    
    22   10   31 1    
    23   11   32 1    
    24   14   12 2    
    25   15   13 2    
    26   13   33 1    
    27   14   15 1    
    28   16   14 1    
    29   15   34 1    
    30   17   16 1    
    31   18   17 2    
    32   17   36 1    
    33   19   18 1    
    34   18   37 1    
    35   20   19 2    
    36   19   21 1    
    37   22   20 1    
    38   20   38 1    
    39   21   23 2    
    40   21   39 1    
    41   22   24 2    
    42   22   40 1    
    43   23   24 1    
    44   23   41 1    
@<TRIPOS>SUBSTRUCTURE
     1 ****        1 TEMP              0 ****  ****    0 ROOT 
@<TRIPOS>NORMAL
@<TRIPOS>FF_PBC
FORCE_FIELD_SETUP_FEATURE Force Field Setup information
v1.0  0 0.000000 0.000000 0.000000 0.000000 0.000000 0.000000 NONE 0 0 0 0 1 0 0 0 0 0 0 0 0
