@<TRIPOS>MOLECULE
MOL004048
   24    23     1     1     0
SMALL
GASTEIGER


@<TRIPOS>ATOM
      1 O           1.049853   -2.979208   -1.047457 O.3       1 <1>        -0.392376 
      2 C           2.127368   -2.043909   -0.830180 C.3       1 <1>         0.072662 
      3 C           1.604973   -0.582953   -0.878135 C.3       1 <1>         0.106826 
      4 C           0.797177   -0.181651    0.400198 C.3       1 <1>         0.115887 
      5 C          -0.422025    0.720486    0.040802 C.3       1 <1>         0.143425 
      6 C          -1.197788    1.116568    1.276509 C.2       1 <1>         0.189191 
      7 C          -2.500893    1.851550    1.086997 C.3       1 <1>         0.104939 
      8 O          -2.877040    1.911087   -0.305676 O.3       1 <1>        -0.387431 
      9 O           2.751751    0.280780   -1.052983 O.3       1 <1>        -0.386858 
     10 O           0.382766   -1.344835    1.148294 O.3       1 <1>        -0.386144 
     11 O          -1.263716    0.007418   -0.886423 O.3       1 <1>        -0.381523 
     12 O          -0.791506    0.858726    2.398578 O.2       1 <1>        -0.292111 
     13 H           1.343958   -3.886287   -1.040754 H         1 <1>         0.209508 
     14 H           2.628560   -2.208881    0.136271 H         1 <1>         0.058361 
     15 H           2.868315   -2.172178   -1.639312 H         1 <1>         0.058361 
     16 H           0.972502   -0.519936   -1.782771 H         1 <1>         0.064301 
     17 H           1.488655    0.384978    1.049319 H         1 <1>         0.065021 
     18 H          -0.054554    1.649906   -0.426430 H         1 <1>         0.070064 
     19 H          -3.272077    1.315905    1.663808 H         1 <1>         0.063727 
     20 H          -2.386444    2.869844    1.496244 H         1 <1>         0.063727 
     21 H          -3.705643    2.362313   -0.452536 H         1 <1>         0.209969 
     22 H           2.532997    1.198259   -1.168952 H         1 <1>         0.209989 
     23 H          -0.047563   -1.121515    1.968885 H         1 <1>         0.210018 
     24 H          -2.029828    0.513531   -1.154296 H         1 <1>         0.210468 
@<TRIPOS>BOND
     1    1    2 1    
     2    1   13 1    
     3    2    3 1    
     4    2   14 1    
     5    2   15 1    
     6    3    4 1    
     7    3    9 1    
     8    3   16 1    
     9    4    5 1    
    10    4   10 1    
    11    4   17 1    
    12    5    6 1    
    13    5   11 1    
    14    5   18 1    
    15    6    7 1    
    16    6   12 2    
    17    7    8 1    
    18    7   19 1    
    19    7   20 1    
    20    8   21 1    
    21    9   22 1    
    22   10   23 1    
    23   11   24 1    
@<TRIPOS>SUBSTRUCTURE
     1 ****        1 TEMP              0 ****  ****    0 ROOT 
@<TRIPOS>NORMAL
@<TRIPOS>FF_PBC
FORCE_FIELD_SETUP_FEATURE Force Field Setup information
v1.0  0 0.000000 0.000000 0.000000 0.000000 0.000000 0.000000 NONE 0 0 0 0 1 0 0 0 0 0 0 0 0
