@<TRIPOS>MOLECULE
MOL004686
   26    25     1     1     0
SMALL
GASTEIGER


@<TRIPOS>ATOM
      1 C           5.405931    0.025715    0.000150 C.3       1 <1>        -0.002012 
      2 C           4.043612    0.668469    0.000094 C.2       1 <1>         0.152745 
      3 C           2.797393   -0.127161   -0.000007 C.2       1 <1>        -0.023425 
      4 C           1.572152    0.414855   -0.000078 C.2       1 <1>        -0.080729 
      5 C           0.325001   -0.437695   -0.000189 C.3       1 <1>        -0.034364 
      6 C          -0.967012    0.423278    0.000090 C.3       1 <1>        -0.049614 
      7 C          -2.242650   -0.462965   -0.000103 C.3       1 <1>        -0.053028 
      8 C          -3.531264    0.404135    0.000139 C.3       1 <1>        -0.055902 
      9 C          -4.806324   -0.478781   -0.000096 C.3       1 <1>        -0.065276 
     10 O           3.982571    1.887512    0.000134 O.2       1 <1>        -0.292987 
     11 H           5.342432   -1.072394    0.000025 H         1 <1>         0.030912 
     12 H           5.958957    0.346942    0.895404 H         1 <1>         0.030912 
     13 H           5.959128    0.347135   -0.894929 H         1 <1>         0.030912 
     14 H           2.881842   -1.213732   -0.000028 H         1 <1>         0.064900 
     15 H           1.472153    1.501240   -0.000064 H         1 <1>         0.057307 
     16 H           0.336641   -1.081440   -0.894514 H         1 <1>         0.030742 
     17 H           0.336738   -1.081880    0.893819 H         1 <1>         0.030742 
     18 H          -0.970476    1.068583    0.894267 H         1 <1>         0.026822 
     19 H          -0.970548    1.069046   -0.893751 H         1 <1>         0.026822 
     20 H          -2.238640   -1.108794   -0.893625 H         1 <1>         0.026529 
     21 H          -2.238601   -1.109244    0.893094 H         1 <1>         0.026529 
     22 H          -3.541289    1.050437    0.893745 H         1 <1>         0.026265 
     23 H          -3.541302    1.050919   -0.893118 H         1 <1>         0.026265 
     24 H          -5.706816    0.155747    0.000081 H         1 <1>         0.022978 
     25 H          -4.829870   -1.119565   -0.895337 H         1 <1>         0.022978 
     26 H          -4.829862   -1.120055    0.894794 H         1 <1>         0.022978 
@<TRIPOS>BOND
     1    1    2 1    
     2    1   11 1    
     3    1   12 1    
     4    1   13 1    
     5    2    3 1    
     6    2   10 2    
     7    3    4 2    
     8    3   14 1    
     9    4    5 1    
    10    4   15 1    
    11    5    6 1    
    12    5   16 1    
    13    5   17 1    
    14    6    7 1    
    15    6   18 1    
    16    6   19 1    
    17    7    8 1    
    18    7   20 1    
    19    7   21 1    
    20    8    9 1    
    21    8   22 1    
    22    8   23 1    
    23    9   24 1    
    24    9   25 1    
    25    9   26 1    
@<TRIPOS>SUBSTRUCTURE
     1 ****        1 TEMP              0 ****  ****    0 ROOT 
@<TRIPOS>NORMAL
@<TRIPOS>FF_PBC
FORCE_FIELD_SETUP_FEATURE Force Field Setup information
v1.0  0 0.000000 0.000000 0.000000 0.000000 0.000000 0.000000 NONE 0 0 0 0 1 0 0 0 0 0 0 0 0
