@<TRIPOS>MOLECULE
MOL000251
   34    36     1     1     0
SMALL
GASTEIGER


@<TRIPOS>ATOM
      1 C           1.084315   -0.449929    0.090512 C.2       1 <1>         0.123622 
      2 C           1.144750   -1.784323    0.226968 C.2       1 <1>         0.151805 
      3 C          -0.098944   -2.575407    0.239871 C.2       1 <1>         0.223066 
      4 C          -1.407568   -1.837740    0.120507 C.ar      1 <1>         0.084553 
      5 C          -2.719188   -2.529016    0.129408 C.ar      1 <1>         0.088409 
      6 C          -3.910065   -1.755099    0.013745 C.ar      1 <1>        -0.001054 
      7 C          -3.843129   -0.280978   -0.114287 C.ar      1 <1>         0.080751 
      8 C          -2.565488    0.355882   -0.120789 C.ar      1 <1>        -0.000281 
      9 C          -1.329554   -0.451095   -0.000188 C.ar      1 <1>         0.099008 
     10 O          -0.090898    0.196524   -0.009783 O.3       1 <1>        -0.305131 
     11 O          -0.043880   -3.790100    0.346591 O.2       1 <1>        -0.284270 
     12 O          -5.040629    0.437450   -0.224814 O.3       1 <1>        -0.347746 
     13 C          -5.056044    1.868502   -0.356711 C.3       1 <1>         0.043029 
     14 C           2.327337    0.415014    0.053019 C.ar      1 <1>         0.008296 
     15 C           2.265179    1.755055    0.686799 C.ar      1 <1>        -0.049598 
     16 C           3.389413    2.602551    0.686902 C.ar      1 <1>        -0.031302 
     17 C           4.656716    2.171711    0.054041 C.ar      1 <1>         0.072619 
     18 C           4.726133    0.891920   -0.563936 C.ar      1 <1>        -0.031302 
     19 C           3.539410    0.003211   -0.571911 C.ar      1 <1>        -0.049598 
     20 O           5.757429    3.031957    0.077426 O.3       1 <1>        -0.359832 
     21 O          -2.768539   -3.919939    0.250343 O.3       1 <1>        -0.358954 
     22 O           2.331045   -2.394444    0.364633 O.3       1 <1>        -0.354461 
     23 H          -4.883281   -2.232610    0.017520 H         1 <1>         0.066931 
     24 H          -2.461770    1.429095   -0.212360 H         1 <1>         0.066955 
     25 H          -6.106267    2.188164   -0.425993 H         1 <1>         0.052870 
     26 H          -4.536496    2.186824   -1.273560 H         1 <1>         0.052870 
     27 H          -4.604944    2.352107    0.523340 H         1 <1>         0.052870 
     28 H           1.343989    2.085756    1.155870 H         1 <1>         0.062504 
     29 H           3.335601    3.580869    1.152425 H         1 <1>         0.064339 
     30 H           5.644056    0.555281   -1.033682 H         1 <1>         0.064339 
     31 H           3.611602   -0.957632   -1.068116 H         1 <1>         0.062504 
     32 H           6.532508    2.685472   -0.349762 H         1 <1>         0.217313 
     33 H          -3.645063   -4.287880    0.248526 H         1 <1>         0.217342 
     34 H           2.252887   -3.339266    0.460564 H         1 <1>         0.217537 
@<TRIPOS>BOND
     1    1    2 2    
     2    1   10 1    
     3    1   14 1    
     4    2    3 1    
     5    2   22 1    
     6    3    4 1    
     7    3   11 2    
     8    4    5 1    
     9    4    9 2    
    10    5    6 2    
    11    5   21 1    
    12    6    7 1    
    13    6   23 1    
    14    7    8 2    
    15    7   12 1    
    16    8    9 1    
    17    8   24 1    
    18    9   10 1    
    19   12   13 1    
    20   13   25 1    
    21   13   26 1    
    22   13   27 1    
    23   14   15 1    
    24   14   19 2    
    25   15   16 2    
    26   15   28 1    
    27   16   17 1    
    28   16   29 1    
    29   17   18 2    
    30   17   20 1    
    31   18   19 1    
    32   18   30 1    
    33   19   31 1    
    34   20   32 1    
    35   21   33 1    
    36   22   34 1    
@<TRIPOS>SUBSTRUCTURE
     1 ****        1 TEMP              0 ****  ****    0 ROOT 
@<TRIPOS>NORMAL
@<TRIPOS>FF_PBC
FORCE_FIELD_SETUP_FEATURE Force Field Setup information
v1.0  0 0.000000 0.000000 0.000000 0.000000 0.000000 0.000000 NONE 0 0 0 0 1 0 0 0 0 0 0 0 0
