@<TRIPOS>MOLECULE
MOL002730
   47    49     1     1     0
SMALL
GASTEIGER


@<TRIPOS>ATOM
      1 N          -0.320868   -0.829177   -0.559392 N.3       1 <1>        -0.222281 
      2 C           0.448109   -0.758402    0.642806 C.ar      1 <1>         0.049782 
      3 C           0.209464   -1.647395   -1.478939 C.2       1 <1>         0.149679 
      4 C          -1.805818   -0.941384   -0.501188 C.3       1 <1>         0.038651 
      5 C           1.513100   -1.753900    0.913893 C.ar      1 <1>         0.083384 
      6 C           0.219011    0.259139    1.593672 C.ar      1 <1>        -0.038111 
      7 C           1.196565   -2.697993   -1.145238 C.2       1 <1>         0.163485 
      8 N          -0.150186   -1.556212   -2.695336 N.2       1 <1>        -0.180746 
      9 C          -2.587668    0.396275   -0.688307 C.3       1 <1>         0.096964 
     10 N           1.750357   -2.708695   -0.001142 N.2       1 <1>        -0.237892 
     11 C           2.274293   -1.696007    2.085319 C.ar      1 <1>        -0.031577 
     12 C           1.008182    0.329877    2.848147 C.ar      1 <1>        -0.045916 
     13 C           1.537984   -3.697025   -2.175352 C.2       1 <1>         0.273100 
     14 C           0.275884   -2.482331   -3.715300 C.2       1 <1>         0.341714 
     15 C          -2.183502    1.223481   -1.954667 C.3       1 <1>         0.110157 
     16 O          -3.983260    0.016675   -0.742860 O.3       1 <1>        -0.387849 
     17 C           2.030362   -0.631790    3.090999 C.ar      1 <1>        -0.045435 
     18 C           0.702230    1.445116    3.855986 C.3       1 <1>        -0.039410 
     19 N           1.071623   -3.526723   -3.427839 N.am      1 <1>        -0.231079 
     20 O           2.246772   -4.646443   -1.881631 O.2       1 <1>        -0.267946 
     21 O          -0.129901   -2.291007   -4.849482 O.2       1 <1>        -0.247275 
     22 C          -0.983939    2.211051   -1.751057 C.3       1 <1>         0.106442 
     23 O          -1.969609    0.314631   -3.053942 O.3       1 <1>        -0.386546 
     24 C           2.883833   -0.584884    4.364770 C.3       1 <1>        -0.039394 
     25 C          -1.331377    3.450742   -0.878060 C.3       1 <1>         0.072650 
     26 O           0.167873    1.560956   -1.189651 O.3       1 <1>        -0.386870 
     27 O          -0.173589    4.310183   -0.862312 O.3       1 <1>        -0.392376 
     28 H          -2.092138   -1.378523    0.470397 H         1 <1>         0.046096 
     29 H          -2.206905   -1.621594   -1.273457 H         1 <1>         0.046096 
     30 H          -0.538631    1.005520    1.409879 H         1 <1>         0.063670 
     31 H          -2.479760    1.016106    0.210164 H         1 <1>         0.063296 
     32 H           3.049817   -2.437114    2.245296 H         1 <1>         0.064193 
     33 H          -3.050972    1.846678   -2.232949 H         1 <1>         0.064616 
     34 H          -4.593352    0.746350   -0.789942 H         1 <1>         0.209946 
     35 H          -0.288660    1.885838    3.668500 H         1 <1>         0.027762 
     36 H           1.461354    2.234095    3.752410 H         1 <1>         0.027762 
     37 H           0.714254    1.058226    4.885554 H         1 <1>         0.027762 
     38 H           1.317152   -4.177020   -4.146361 H         1 <1>         0.159700 
     39 H          -0.712311    2.608492   -2.745745 H         1 <1>         0.064289 
     40 H          -1.770620    0.735531   -3.884464 H         1 <1>         0.210003 
     41 H           3.255610    0.437516    4.530554 H         1 <1>         0.027762 
     42 H           3.754402   -1.254139    4.288077 H         1 <1>         0.027762 
     43 H           2.273577   -0.897991    5.225567 H         1 <1>         0.027762 
     44 H          -1.563992    3.143129    0.153244 H         1 <1>         0.058361 
     45 H          -2.199073    3.988117   -1.298881 H         1 <1>         0.058361 
     46 H           0.899614    2.161263   -1.075141 H         1 <1>         0.209989 
     47 H          -0.293553    5.099824   -0.341928 H         1 <1>         0.209508 
@<TRIPOS>BOND
     1    1    2 1    
     2    1    3 1    
     3    1    4 1    
     4    2    5 1    
     5    2    6 2    
     6    3    7 1    
     7    3    8 2    
     8    4    9 1    
     9    4   28 1    
    10    4   29 1    
    11    5   10 1    
    12    5   11 2    
    13    6   12 1    
    14    6   30 1    
    15    7   10 2    
    16    7   13 1    
    17    8   14 1    
    18    9   15 1    
    19    9   16 1    
    20    9   31 1    
    21   11   17 1    
    22   11   32 1    
    23   12   17 2    
    24   12   18 1    
    25   13   19 1    
    26   13   20 2    
    27   14   19 1    
    28   14   21 2    
    29   15   22 1    
    30   15   23 1    
    31   15   33 1    
    32   16   34 1    
    33   17   24 1    
    34   18   35 1    
    35   18   36 1    
    36   18   37 1    
    37   19   38 1    
    38   22   25 1    
    39   22   26 1    
    40   22   39 1    
    41   23   40 1    
    42   24   41 1    
    43   24   42 1    
    44   24   43 1    
    45   25   27 1    
    46   25   44 1    
    47   25   45 1    
    48   26   46 1    
    49   27   47 1    
@<TRIPOS>SUBSTRUCTURE
     1 ****        1 TEMP              0 ****  ****    0 ROOT 
@<TRIPOS>NORMAL
@<TRIPOS>FF_PBC
FORCE_FIELD_SETUP_FEATURE Force Field Setup information
v1.0  0 0.000000 0.000000 0.000000 0.000000 0.000000 0.000000 NONE 0 0 0 0 1 0 0 0 0 0 0 0 0
