@<TRIPOS>MOLECULE
MOL004679
   39    41     1     1     0
SMALL
GASTEIGER


@<TRIPOS>ATOM
      1 C          -0.426733    1.216853    0.646273 C.3       1 <1>        -0.025743 
      2 C           0.730769    0.220241    1.294187 C.3       1 <1>        -0.028069 
      3 C           0.785570   -1.413745    1.114389 C.3       1 <1>        -0.007946 
      4 C          -1.296641    0.067388    1.178109 C.3       1 <1>        -0.016025 
      5 C          -0.484603    1.693131   -1.054904 C.3       1 <1>        -0.031234 
      6 C           0.927052    0.163796   -0.065050 C.3       1 <1>        -0.048590 
      7 C          -0.536172   -1.097163    1.850634 C.2       1 <1>        -0.067068 
      8 C          -0.832779   -0.396796   -0.143106 C.3       1 <1>        -0.045937 
      9 C           0.833904   -2.098818   -0.492729 C.3       1 <1>        -0.043639 
     10 C           0.065882    0.486983   -2.192422 C.3       1 <1>        -0.047565 
     11 C           0.456493   -1.196341   -1.940017 C.3       1 <1>        -0.051772 
     12 C           1.863239   -2.055291    2.025983 C.3       1 <1>        -0.055579 
     13 C           0.340685    3.018443   -1.309916 C.3       1 <1>        -0.059532 
     14 C          -1.950834    2.209471   -1.345568 C.3       1 <1>        -0.059532 
     15 C          -1.007033   -1.739601    2.926043 C.2       1 <1>        -0.098645 
     16 H          -0.580653    2.091396    1.299453 H         1 <1>         0.031460 
     17 H           1.543389    0.682219    1.891066 H         1 <1>         0.031212 
     18 H          -2.386554    0.191508    1.301125 H         1 <1>         0.034863 
     19 H           1.523716    1.099833   -0.255601 H         1 <1>         0.026847 
     20 H           1.929607   -0.219429   -0.406203 H         1 <1>         0.026847 
     21 H          -1.635848   -0.222838   -0.883662 H         1 <1>         0.027115 
     22 H          -1.268850   -1.428146   -0.198623 H         1 <1>         0.027115 
     23 H           1.869207   -2.456606   -0.632885 H         1 <1>         0.027366 
     24 H           0.261601   -3.042216   -0.471511 H         1 <1>         0.027366 
     25 H          -0.643923    0.515547   -3.034639 H         1 <1>         0.027052 
     26 H           0.993314    0.900969   -2.621857 H         1 <1>         0.027052 
     27 H          -0.387483   -1.748909   -2.388560 H         1 <1>         0.026572 
     28 H           1.288527   -1.403660   -2.634192 H         1 <1>         0.026572 
     29 H           1.691863   -3.140217    2.086905 H         1 <1>         0.023820 
     30 H           2.860076   -1.876032    1.596646 H         1 <1>         0.023820 
     31 H           1.845228   -1.629858    3.041077 H         1 <1>         0.023820 
     32 H           0.067728    3.461361   -2.280548 H         1 <1>         0.023508 
     33 H           0.117639    3.758444   -0.526003 H         1 <1>         0.023508 
     34 H           1.435196    2.933767   -1.350567 H         1 <1>         0.023508 
     35 H          -2.789291    1.548372   -1.091583 H         1 <1>         0.023508 
     36 H          -2.150154    3.125837   -0.768324 H         1 <1>         0.023508 
     37 H          -2.064269    2.454733   -2.412822 H         1 <1>         0.023508 
     38 H          -1.954984   -1.436066    3.368197 H         1 <1>         0.053466 
     39 H          -0.475059   -2.571248    3.384314 H         1 <1>         0.053466 
@<TRIPOS>BOND
     1    1    2 1    
     2    1    4 1    
     3    1    5 1    
     4    1   16 1    
     5    2    3 1    
     6    2    6 1    
     7    2   17 1    
     8    3    7 1    
     9    3    9 1    
    10    3   12 1    
    11    4    7 1    
    12    4    8 1    
    13    4   18 1    
    14    5   10 1    
    15    5   13 1    
    16    5   14 1    
    17    6    8 1    
    18    6   19 1    
    19    6   20 1    
    20    7   15 2    
    21    8   21 1    
    22    8   22 1    
    23    9   11 1    
    24    9   23 1    
    25    9   24 1    
    26   10   11 1    
    27   10   25 1    
    28   10   26 1    
    29   11   27 1    
    30   11   28 1    
    31   12   29 1    
    32   12   30 1    
    33   12   31 1    
    34   13   32 1    
    35   13   33 1    
    36   13   34 1    
    37   14   35 1    
    38   14   36 1    
    39   14   37 1    
    40   15   38 1    
    41   15   39 1    
@<TRIPOS>SUBSTRUCTURE
     1 ****        1 TEMP              0 ****  ****    0 ROOT 
@<TRIPOS>NORMAL
@<TRIPOS>FF_PBC
FORCE_FIELD_SETUP_FEATURE Force Field Setup information
v1.0  0 0.000000 0.000000 0.000000 0.000000 0.000000 0.000000 NONE 0 0 0 0 1 0 0 0 0 0 0 0 0
