@<TRIPOS>MOLECULE
MOL002649
   46    47     1     1     0
SMALL
GASTEIGER


@<TRIPOS>ATOM
      1 O          -2.769228    1.673708   -0.399480 O.3       1 <1>        -0.340166 
      2 O          -0.531190    1.203973   -0.376352 O.3       1 <1>        -0.309981 
      3 O          -3.636731   -0.378847    3.133964 O.3       1 <1>        -0.386401 
      4 O          -5.786419    0.435471    1.361677 O.3       1 <1>        -0.386488 
      5 O          -1.084522   -0.725513    1.929613 O.3       1 <1>        -0.384091 
      6 O          -6.453626    1.948714   -0.759693 O.3       1 <1>        -0.392366 
      7 O           1.937807    2.611850   -0.322165 O.3       1 <1>        -0.345321 
      8 O           5.796449   -4.966973   -0.805994 O.3       1 <1>        -0.390992 
      9 C          -3.423150   -0.166663    1.725558 C.3       1 <1>         0.114074 
     10 C          -4.429465    0.904736    1.238373 C.3       1 <1>         0.111896 
     11 C          -1.971671    0.309256    1.458716 C.3       1 <1>         0.134511 
     12 C          -4.142406    1.253889   -0.243784 C.3       1 <1>         0.113017 
     13 C          -1.818709    0.646405   -0.051654 C.3       1 <1>         0.193752 
     14 C          -5.083003    2.387501   -0.726740 C.3       1 <1>         0.073015 
     15 C           0.669378    0.473891   -0.421032 C.ar      1 <1>         0.109335 
     16 C           1.960779    1.210589   -0.400918 C.ar      1 <1>         0.106331 
     17 C           0.689354   -0.946833   -0.498848 C.ar      1 <1>        -0.028469 
     18 C           3.184000    0.485731   -0.462030 C.ar      1 <1>        -0.022001 
     19 C           1.971355   -1.684570   -0.554656 C.ar      1 <1>        -0.052000 
     20 C           3.192973   -0.994737   -0.549123 C.ar      1 <1>        -0.022655 
     21 C           4.525109   -1.714501   -0.620972 C.2       1 <1>        -0.056303 
     22 C           3.094431    3.411655   -0.621701 C.3       1 <1>         0.043136 
     23 C           4.693238   -2.902850   -1.219303 C.2       1 <1>        -0.058388 
     24 C           6.016079   -3.625657   -1.276229 C.3       1 <1>         0.062691 
     25 H          -3.609750   -1.106177    1.177162 H         1 <1>         0.064758 
     26 H          -4.290078    1.812722    1.849584 H         1 <1>         0.064673 
     27 H          -1.806050    1.233762    2.038981 H         1 <1>         0.067108 
     28 H          -4.356015    0.374771   -0.875494 H         1 <1>         0.064668 
     29 H          -2.025225   -0.221003   -0.695247 H         1 <1>         0.094161 
     30 H          -4.971082    3.275596   -0.083307 H         1 <1>         0.058370 
     31 H          -4.804607    2.675665   -1.753006 H         1 <1>         0.058370 
     32 H          -3.026128   -1.017390    3.492542 H         1 <1>         0.210005 
     33 H          -5.990012    0.175581    2.256648 H         1 <1>         0.210004 
     34 H          -0.174272   -0.447235    1.952280 H         1 <1>         0.210111 
     35 H          -6.749049    1.620915    0.087205 H         1 <1>         0.209508 
     36 H          -0.219055   -1.532333   -0.518614 H         1 <1>         0.064430 
     37 H           4.136524    0.999048   -0.448325 H         1 <1>         0.065001 
     38 H           1.941476   -2.766702   -0.593811 H         1 <1>         0.062425 
     39 H           5.379706   -1.216724   -0.164106 H         1 <1>         0.062105 
     40 H           2.784786    4.467084   -0.597358 H         1 <1>         0.052871 
     41 H           3.887257    3.272369    0.128680 H         1 <1>         0.052871 
     42 H           3.479381    3.183890   -1.628072 H         1 <1>         0.052871 
     43 H           3.865855   -3.409780   -1.713292 H         1 <1>         0.059478 
     44 H           6.781747   -3.127563   -0.658400 H         1 <1>         0.060128 
     45 H           6.360121   -3.636441   -2.324075 H         1 <1>         0.060128 
     46 H           6.580414   -5.507748   -0.832629 H         1 <1>         0.209823 
@<TRIPOS>BOND
     1    1   12 1    
     2   13    1 1    
     3    2   13 1    
     4   15    2 1    
     5    9    3 1    
     6    3   32 1    
     7   10    4 1    
     8    4   33 1    
     9   11    5 1    
    10    5   34 1    
    11   14    6 1    
    12    6   35 1    
    13   16    7 1    
    14    7   22 1    
    15   24    8 1    
    16    8   46 1    
    17    9   10 1    
    18   11    9 1    
    19    9   25 1    
    20   12   10 1    
    21   10   26 1    
    22   13   11 1    
    23   11   27 1    
    24   12   14 1    
    25   12   28 1    
    26   13   29 1    
    27   14   30 1    
    28   14   31 1    
    29   16   15 1    
    30   17   15 2    
    31   18   16 2    
    32   19   17 1    
    33   17   36 1    
    34   20   18 1    
    35   18   37 1    
    36   20   19 2    
    37   19   38 1    
    38   21   20 1    
    39   23   21 2    
    40   21   39 1    
    41   22   40 1    
    42   22   41 1    
    43   22   42 1    
    44   23   24 1    
    45   23   43 1    
    46   24   44 1    
    47   24   45 1    
@<TRIPOS>SUBSTRUCTURE
     1 ****        3 TEMP              0 ****  ****    0 ROOT 
@<TRIPOS>NORMAL
@<TRIPOS>FF_PBC
FORCE_FIELD_SETUP_FEATURE Force Field Setup information
v1.0  0 0.000000 0.000000 0.000000 0.000000 0.000000 0.000000 NONE 0 0 0 0 1 0 0 0 0 0 0 0 0
