@<TRIPOS>MOLECULE
MOL001301
   19    19     1     1     0
SMALL
GASTEIGER


@<TRIPOS>ATOM
      1 C           0.750236    2.486767   -0.278838 C.2       1 <1>         0.284026 
      2 C           1.843853    1.616122    0.194130 C.2       1 <1>         0.010297 
      3 C           1.780324    0.299974    0.440808 C.2       1 <1>        -0.048943 
      4 O           0.856769    3.696177   -0.144668 O.2       1 <1>        -0.260082 
      5 O          -0.328093    1.959706   -0.862697 O.3       1 <1>        -0.327929 
      6 C           0.516179   -0.525651    0.344223 C.ar      1 <1>        -0.024850 
      7 C           0.563347   -1.835333   -0.349876 C.ar      1 <1>        -0.054590 
      8 C          -0.593182   -2.625039   -0.452485 C.ar      1 <1>        -0.061202 
      9 C          -1.869342   -2.151276    0.133607 C.ar      1 <1>        -0.061723 
     10 C          -1.918889   -0.915482    0.797023 C.ar      1 <1>        -0.061202 
     11 C          -0.696199   -0.085390    0.912414 C.ar      1 <1>        -0.054590 
     12 H           2.802277    2.115329    0.341871 H         1 <1>         0.067729 
     13 H           2.686480   -0.233405    0.731480 H         1 <1>         0.062525 
     14 H          -0.957129    2.621325   -1.128463 H         1 <1>         0.220537 
     15 H           1.496483   -2.183150   -0.780773 H         1 <1>         0.062344 
     16 H          -0.555639   -3.583071   -0.961168 H         1 <1>         0.061776 
     17 H          -2.763056   -2.761258    0.048290 H         1 <1>         0.061759 
     18 H          -2.851754   -0.565010    1.227075 H         1 <1>         0.061776 
     19 H          -0.742292    0.859994    1.442255 H         1 <1>         0.062344 
@<TRIPOS>BOND
     1    1    2 1    
     2    1    4 2    
     3    1    5 1    
     4    2    3 2    
     5    2   12 1    
     6    3    6 1    
     7    3   13 1    
     8    5   14 1    
     9    6    7 1    
    10    6   11 2    
    11    7    8 2    
    12    7   15 1    
    13    8    9 1    
    14    8   16 1    
    15    9   10 2    
    16    9   17 1    
    17   10   11 1    
    18   10   18 1    
    19   11   19 1    
@<TRIPOS>SUBSTRUCTURE
     1 ****        1 TEMP              0 ****  ****    0 ROOT 
@<TRIPOS>NORMAL
@<TRIPOS>FF_PBC
FORCE_FIELD_SETUP_FEATURE Force Field Setup information
v1.0  0 0.000000 0.000000 0.000000 0.000000 0.000000 0.000000 NONE 0 0 0 0 1 0 0 0 0 0 0 0 0
