@<TRIPOS>MOLECULE
MOL004739
   13    12     1     1     0
SMALL
GASTEIGER


@<TRIPOS>ATOM
      1 C           0.271076   -0.235829   -0.252018 C.3       1 <1>         0.088543 
      2 C          -1.241530   -0.228251   -0.281770 C.2       1 <1>         0.276267 
      3 C           0.848983    1.204780   -0.213924 C.3       1 <1>        -0.040599 
      4 N           0.760531   -1.027928    0.900282 N.3       1 <1>        -0.319536 
      5 O          -1.820473   -1.417916   -0.464282 O.3       1 <1>        -0.330104 
      6 O          -1.892690    0.797279   -0.151182 O.2       1 <1>        -0.263449 
      7 H           0.603076   -0.727865   -1.182011 H         1 <1>         0.055932 
      8 H           1.949318    1.177302   -0.236228 H         1 <1>         0.024953 
      9 H           0.496199    1.780711   -1.083883 H         1 <1>         0.024953 
     10 H           0.528302    1.720171    0.704414 H         1 <1>         0.024953 
     11 H           1.840539   -1.094284    0.897074 H         1 <1>         0.118914 
     12 H           0.425574   -0.595652    1.833651 H         1 <1>         0.118914 
     13 H          -2.769102   -1.352618   -0.470422 H         1 <1>         0.220259 
@<TRIPOS>BOND
     1    1    2 1    
     2    1    3 1    
     3    1    4 1    
     4    1    7 1    
     5    2    5 1    
     6    2    6 2    
     7    3    8 1    
     8    3    9 1    
     9    3   10 1    
    10    4   11 1    
    11    4   12 1    
    12    5   13 1    
@<TRIPOS>SUBSTRUCTURE
     1 ****        1 TEMP              0 ****  ****    0 ROOT 
@<TRIPOS>NORMAL
@<TRIPOS>FF_PBC
FORCE_FIELD_SETUP_FEATURE Force Field Setup information
v1.0  0 0.000000 0.000000 0.000000 0.000000 0.000000 0.000000 NONE 0 0 0 0 1 0 0 0 0 0 0 0 0
