@<TRIPOS>MOLECULE
MOL000721
   24    23     1     1     0
SMALL
GASTEIGER


@<TRIPOS>ATOM
      1 C          -0.172825    0.576833    0.000156 C.2       1 <1>        -0.084006 
      2 C          -1.343307    1.228099    0.000040 C.2       1 <1>        -0.065593 
      3 C          -0.104537   -0.932177    0.000238 C.3       1 <1>        -0.034477 
      4 C          -1.443945    2.702853   -0.000025 C.2       1 <1>        -0.059033 
      5 C           1.359438   -1.449098   -0.000060 C.3       1 <1>        -0.049856 
      6 C          -2.615876    3.351421   -0.000042 C.2       1 <1>        -0.022455 
      7 C           1.413282   -3.001139    0.000064 C.3       1 <1>        -0.055633 
      8 C          -2.727856    4.821869   -0.000097 C.2       1 <1>         0.143100 
      9 C           2.877214   -3.513272   -0.000191 C.3       1 <1>        -0.065267 
     10 O          -3.829252    5.346948   -0.000095 O.2       1 <1>        -0.296320 
     11 H           0.755986    1.148870    0.000205 H         1 <1>         0.057204 
     12 H          -2.263075    0.641474    0.000000 H         1 <1>         0.061449 
     13 H          -0.626445   -1.309423    0.894467 H         1 <1>         0.030741 
     14 H          -0.626870   -1.309579   -0.893679 H         1 <1>         0.030741 
     15 H          -0.521149    3.284281   -0.000056 H         1 <1>         0.061844 
     16 H           1.878503   -1.065757   -0.894280 H         1 <1>         0.026813 
     17 H           1.878915   -1.065614    0.893858 H         1 <1>         0.026813 
     18 H          -3.548655    2.786898   -0.000012 H         1 <1>         0.064938 
     19 H           0.896017   -3.388656    0.893706 H         1 <1>         0.026274 
     20 H           0.895649   -3.388809   -0.893301 H         1 <1>         0.026274 
     21 H          -1.843969    5.459151   -0.000137 H         1 <1>         0.107515 
     22 H           2.893819   -4.614688   -0.000099 H         1 <1>         0.022978 
     23 H           3.409340   -3.155218   -0.895346 H         1 <1>         0.022978 
     24 H           3.409703   -3.155068    0.894687 H         1 <1>         0.022978 
@<TRIPOS>BOND
     1    1    2 2    
     2    1    3 1    
     3    1   11 1    
     4    2    4 1    
     5    2   12 1    
     6    3    5 1    
     7    3   13 1    
     8    3   14 1    
     9    4    6 2    
    10    4   15 1    
    11    5    7 1    
    12    5   16 1    
    13    5   17 1    
    14    6    8 1    
    15    6   18 1    
    16    7    9 1    
    17    7   19 1    
    18    7   20 1    
    19    8   10 2    
    20    8   21 1    
    21    9   22 1    
    22    9   23 1    
    23    9   24 1    
@<TRIPOS>SUBSTRUCTURE
     1 ****        1 TEMP              0 ****  ****    0 ROOT 
@<TRIPOS>NORMAL
@<TRIPOS>FF_PBC
FORCE_FIELD_SETUP_FEATURE Force Field Setup information
v1.0  0 0.000000 0.000000 0.000000 0.000000 0.000000 0.000000 NONE 0 0 0 0 1 0 0 0 0 0 0 0 0
