@<TRIPOS>MOLECULE
MOL001599
   39    40     1     1     0
SMALL
GASTEIGER


@<TRIPOS>ATOM
      1 C           1.266023    1.784475   -0.263886 C.3       1 <1>         0.066700 
      2 C           1.498336    1.087561   -1.631017 C.3       1 <1>        -0.023480 
      3 C           1.805643   -0.426299   -1.482507 C.3       1 <1>        -0.044731 
      4 C           0.680994   -1.216090   -0.743374 C.3       1 <1>        -0.028193 
      5 C           0.273721   -0.467392    0.582300 C.3       1 <1>        -0.012082 
      6 C          -0.934971   -1.107662    1.230683 C.2       1 <1>        -0.081070 
      7 C          -2.125535   -0.511006    1.391771 C.2       1 <1>        -0.076230 
      8 C          -2.394747    0.908633    0.953961 C.3       1 <1>        -0.031637 
      9 C          -1.316275    1.477452   -0.002177 C.3       1 <1>        -0.043377 
     10 C           0.098984    1.084358    0.503392 C.3       1 <1>        -0.005360 
     11 O           0.925592    3.148415   -0.579210 O.3       1 <1>        -0.388553 
     12 C          -3.291402   -1.220904    2.045744 C.3       1 <1>        -0.043778 
     13 C           1.266256   -2.624661   -0.387716 C.3       1 <1>        -0.059267 
     14 C          -0.510294   -1.485034   -1.721692 C.3       1 <1>        -0.059267 
     15 C           2.575617    1.831519    0.583707 C.3       1 <1>        -0.035799 
     16 H           2.343016    1.578093   -2.142108 H         1 <1>         0.029300 
     17 H           0.614980    1.240405   -2.267046 H         1 <1>         0.029300 
     18 H           1.955746   -0.853673   -2.487813 H         1 <1>         0.027150 
     19 H           2.760640   -0.542522   -0.949413 H         1 <1>         0.027150 
     20 H           1.098144   -0.618333    1.297570 H         1 <1>         0.035179 
     21 H          -0.820371   -2.128862    1.592589 H         1 <1>         0.057459 
     22 H          -2.430269    1.518505    1.871354 H         1 <1>         0.031000 
     23 H          -3.379475    0.978355    0.463055 H         1 <1>         0.031000 
     24 H          -1.441890    2.571800   -0.036830 H         1 <1>         0.027203 
     25 H          -1.498111    1.109801   -1.015120 H         1 <1>         0.027203 
     26 H           0.125483    1.480835    1.534158 H         1 <1>         0.033427 
     27 H           0.767400    3.688285    0.188321 H         1 <1>         0.210159 
     28 H          -3.640932   -0.632067    2.907068 H         1 <1>         0.027436 
     29 H          -3.037226   -2.230143    2.403275 H         1 <1>         0.027436 
     30 H          -4.115876   -1.313193    1.322993 H         1 <1>         0.027436 
     31 H           0.493028   -3.294632    0.014991 H         1 <1>         0.023516 
     32 H           1.685970   -3.109978   -1.282806 H         1 <1>         0.023516 
     33 H           2.077201   -2.554590    0.353479 H         1 <1>         0.023516 
     34 H          -0.210784   -2.207365   -2.496611 H         1 <1>         0.023516 
     35 H          -1.373432   -1.914028   -1.192280 H         1 <1>         0.023516 
     36 H          -0.845887   -0.597682   -2.265217 H         1 <1>         0.023516 
     37 H           3.375582    2.316557    0.004032 H         1 <1>         0.025730 
     38 H           2.929480    0.840899    0.895700 H         1 <1>         0.025730 
     39 H           2.417554    2.424560    1.497268 H         1 <1>         0.025730 
@<TRIPOS>BOND
     1    1    2 1    
     2    1   10 1    
     3    1   11 1    
     4    1   15 1    
     5    2    3 1    
     6    2   16 1    
     7    2   17 1    
     8    3    4 1    
     9    3   18 1    
    10    3   19 1    
    11    4    5 1    
    12    4   13 1    
    13    4   14 1    
    14    5    6 1    
    15    5   10 1    
    16    5   20 1    
    17    6    7 2    
    18    6   21 1    
    19    7    8 1    
    20    7   12 1    
    21    8    9 1    
    22    8   22 1    
    23    8   23 1    
    24    9   10 1    
    25    9   24 1    
    26    9   25 1    
    27   10   26 1    
    28   11   27 1    
    29   12   28 1    
    30   12   29 1    
    31   12   30 1    
    32   13   31 1    
    33   13   32 1    
    34   13   33 1    
    35   14   34 1    
    36   14   35 1    
    37   14   36 1    
    38   15   37 1    
    39   15   38 1    
    40   15   39 1    
@<TRIPOS>SUBSTRUCTURE
     1 ****        1 TEMP              0 ****  ****    0 ROOT 
@<TRIPOS>NORMAL
@<TRIPOS>FF_PBC
FORCE_FIELD_SETUP_FEATURE Force Field Setup information
v1.0  0 0.000000 0.000000 0.000000 0.000000 0.000000 0.000000 NONE 0 0 0 0 1 0 0 0 0 0 0 0 0
