@<TRIPOS>MOLECULE
MOL000123
   29    28     1     1     0
SMALL
GASTEIGER


@<TRIPOS>ATOM
      1 C           0.839720   -1.711450   -0.000049 C.2       1 <1>        -0.074109 
      2 C          -0.364299   -0.781350    0.000153 C.3       1 <1>        -0.028492 
      3 C           0.634946   -3.038776   -0.000881 C.2       1 <1>        -0.059953 
      4 C           2.243094   -1.135726    0.000833 C.3       1 <1>        -0.043707 
      5 C          -0.151028    0.757840   -0.000015 C.3       1 <1>        -0.030847 
      6 C           1.735320   -4.070338   -0.000876 C.3       1 <1>         0.062627 
      7 C          -1.460085    1.514702    0.000134 C.2       1 <1>        -0.084989 
      8 O           1.138847   -5.380399    0.000959 O.3       1 <1>        -0.390994 
      9 C          -1.569729    2.852992    0.000015 C.2       1 <1>        -0.079608 
     10 C          -2.940946    3.491562    0.000063 C.3       1 <1>        -0.044049 
     11 C          -0.394408    3.806950   -0.000210 C.3       1 <1>        -0.044049 
     12 H          -0.963671   -1.031587   -0.890747 H         1 <1>         0.031286 
     13 H          -0.963214   -1.031509    0.891378 H         1 <1>         0.031286 
     14 H          -0.388798   -3.416023   -0.001568 H         1 <1>         0.059410 
     15 H           2.308576   -0.041895   -0.001825 H         1 <1>         0.027437 
     16 H           2.776501   -1.487791    0.895983 H         1 <1>         0.027437 
     17 H           2.779578   -1.491912   -0.890838 H         1 <1>         0.027437 
     18 H           0.409801    1.045201    0.903806 H         1 <1>         0.031044 
     19 H           0.409268    1.045098   -0.904196 H         1 <1>         0.031044 
     20 H           2.358442   -3.944609   -0.901671 H         1 <1>         0.060126 
     21 H           2.360284   -3.942856    0.898402 H         1 <1>         0.060126 
     22 H          -2.383990    0.933995    0.000305 H         1 <1>         0.057155 
     23 H           1.779993   -6.085111    0.000890 H         1 <1>         0.209823 
     24 H          -2.887648    4.591072    0.000895 H         1 <1>         0.027427 
     25 H          -3.496144    3.174287   -0.895724 H         1 <1>         0.027427 
     26 H          -3.496821    3.172990    0.894970 H         1 <1>         0.027427 
     27 H           0.586572    3.313116   -0.000305 H         1 <1>         0.027427 
     28 H          -0.450153    4.445760   -0.894480 H         1 <1>         0.027427 
     29 H          -0.449907    4.445870    0.893999 H         1 <1>         0.027427 
@<TRIPOS>BOND
     1    1    2 1    
     2    1    3 2    
     3    1    4 1    
     4    2    5 1    
     5    2   12 1    
     6    2   13 1    
     7    3    6 1    
     8    3   14 1    
     9    4   15 1    
    10    4   16 1    
    11    4   17 1    
    12    5    7 1    
    13    5   18 1    
    14    5   19 1    
    15    6    8 1    
    16    6   20 1    
    17    6   21 1    
    18    7    9 2    
    19    7   22 1    
    20    8   23 1    
    21    9   10 1    
    22    9   11 1    
    23   10   24 1    
    24   10   25 1    
    25   10   26 1    
    26   11   27 1    
    27   11   28 1    
    28   11   29 1    
@<TRIPOS>SUBSTRUCTURE
     1 ****        1 TEMP              0 ****  ****    0 ROOT 
@<TRIPOS>NORMAL
@<TRIPOS>FF_PBC
FORCE_FIELD_SETUP_FEATURE Force Field Setup information
v1.0  0 0.000000 0.000000 0.000000 0.000000 0.000000 0.000000 NONE 0 0 0 0 1 0 0 0 0 0 0 0 0
