@<TRIPOS>MOLECULE
MOL004861
   48    50     1     1     0
SMALL
GASTEIGER


@<TRIPOS>ATOM
      1 C           6.261803   -5.325219    0.780934 C.ar      1 <1>         0.082794 
      2 C           6.172702   -4.043158    0.630070 C.ar      1 <1>         0.101520 
      3 C           5.644411   -3.211663    1.743221 C.ar      1 <1>         0.017322 
      4 C           5.321289   -3.792357    2.875661 C.ar      1 <1>         0.080983 
      5 C           5.343835   -5.274935    2.990022 C.ar      1 <1>        -0.001024 
      6 C           5.758734   -6.002745    1.998450 C.ar      1 <1>         0.088350 
      7 C           6.949456   -6.100412   -0.307780 C.2       1 <1>         0.200582 
      8 C           7.888334   -5.324357   -1.132204 C.2       1 <1>         0.052732 
      9 C           7.597185   -4.023247   -1.270480 C.2       1 <1>         0.058268 
     10 O           6.618907   -3.436468   -0.555372 O.3       1 <1>        -0.314985 
     11 C           9.223257   -7.097415   -1.963833 C.ar      1 <1>        -0.021502 
     12 C          10.543792   -7.726933   -2.246150 C.ar      1 <1>         0.103018 
     13 C          11.492658   -7.056923   -2.290820 C.ar      1 <1>         0.105439 
     14 C          11.381087   -5.585784   -2.133720 C.ar      1 <1>        -0.028580 
     15 C          10.361192   -5.109278   -1.865416 C.ar      1 <1>        -0.051251 
     16 C           9.147077   -5.961629   -1.699615 C.ar      1 <1>        -0.009702 
     17 O           6.729885   -7.296916   -0.416091 O.2       1 <1>        -0.286389 
     18 O           5.732239   -7.398055    2.090267 O.3       1 <1>        -0.358955 
     19 O           4.951868   -3.019225    3.974098 O.3       1 <1>        -0.359385 
     20 O          12.759630   -7.619051   -2.452304 O.3       1 <1>        -0.345349 
     21 C           5.529034   -1.691114    1.533401 C.3       1 <1>        -0.004235 
     22 C           4.500914   -0.978145    2.388080 C.2       1 <1>        -0.078407 
     23 C           3.211749   -1.334644    2.507300 C.2       1 <1>        -0.051184 
     24 C           2.266875   -0.590021    3.428389 C.3       1 <1>         0.065055 
     25 O           1.572571   -1.547562    4.249139 O.3       1 <1>        -0.390745 
     26 C           2.600962   -2.496512    1.755133 C.3       1 <1>        -0.041633 
     27 O          10.647587   -9.114869   -2.408945 O.3       1 <1>        -0.357256 
     28 C          13.381072   -7.862019   -1.176665 C.3       1 <1>         0.043135 
     29 H           5.001077   -5.755815    3.900714 H         1 <1>         0.066932 
     30 H           8.138397   -3.356944   -1.939064 H         1 <1>         0.089749 
     31 H           8.355821   -7.741964   -1.980917 H         1 <1>         0.065014 
     32 H          12.277347   -4.981206   -2.269553 H         1 <1>         0.064429 
     33 H          10.299660   -4.033910   -1.731755 H         1 <1>         0.062445 
     34 H           5.949825   -7.830277    1.269140 H         1 <1>         0.217342 
     35 H           5.143725   -3.425707    4.811857 H         1 <1>         0.217328 
     36 H           6.528979   -1.282947    1.743231 H         1 <1>         0.035723 
     37 H           5.290419   -1.476825    0.480179 H         1 <1>         0.035723 
     38 H           4.858397   -0.114427    2.948653 H         1 <1>         0.057552 
     39 H           1.550384   -0.027121    2.808528 H         1 <1>         0.060379 
     40 H           2.796298    0.128320    4.078071 H         1 <1>         0.060379 
     41 H           0.929897   -1.157674    4.834292 H         1 <1>         0.209834 
     42 H           3.200887   -2.820249    0.894616 H         1 <1>         0.027507 
     43 H           1.608365   -2.215035    1.375245 H         1 <1>         0.027507 
     44 H           2.486040   -3.346726    2.443478 H         1 <1>         0.027507 
     45 H           9.881866   -9.594280   -2.115848 H         1 <1>         0.217422 
     46 H          14.372297   -8.307567   -1.345445 H         1 <1>         0.052871 
     47 H          13.505967   -6.919895   -0.617744 H         1 <1>         0.052871 
     48 H          12.778980   -8.562268   -0.574162 H         1 <1>         0.052871 
@<TRIPOS>BOND
     1    1    2 2    
     2    1    6 1    
     3    7    1 1    
     4    2    3 1    
     5   10    2 1    
     6    3    4 2    
     7    3   21 1    
     8    5    4 1    
     9    4   19 1    
    10    6    5 2    
    11    5   29 1    
    12    6   18 1    
    13    8    7 1    
    14    7   17 2    
    15    8    9 2    
    16   16    8 1    
    17    9   10 1    
    18    9   30 1    
    19   11   12 1    
    20   11   16 2    
    21   11   31 1    
    22   12   13 2    
    23   12   27 1    
    24   13   14 1    
    25   13   20 1    
    26   14   15 2    
    27   14   32 1    
    28   15   16 1    
    29   15   33 1    
    30   18   34 1    
    31   19   35 1    
    32   20   28 1    
    33   21   22 1    
    34   21   36 1    
    35   21   37 1    
    36   22   23 2    
    37   22   38 1    
    38   23   24 1    
    39   23   26 1    
    40   24   25 1    
    41   24   39 1    
    42   24   40 1    
    43   25   41 1    
    44   26   42 1    
    45   26   43 1    
    46   26   44 1    
    47   27   45 1    
    48   28   46 1    
    49   28   47 1    
    50   28   48 1    
@<TRIPOS>SUBSTRUCTURE
     1 ****       11 TEMP              0 ****  ****    0 ROOT 
@<TRIPOS>NORMAL
@<TRIPOS>FF_PBC
FORCE_FIELD_SETUP_FEATURE Force Field Setup information
v1.0  0 0.000000 0.000000 0.000000 0.000000 0.000000 0.000000 NONE 0 0 0 0 1 0 0 0 0 0 0 0 0
