@<TRIPOS>MOLECULE
MOL001902
   80    84     1     1     0
SMALL
GASTEIGER


@<TRIPOS>ATOM
      1 C          -5.056538   -2.557470   -0.770609 C.3       1 <1>         0.062974 
      2 C          -5.183623   -1.025304   -0.585943 C.3       1 <1>        -0.025737 
      3 C          -3.834284   -0.291401   -0.810203 C.3       1 <1>        -0.044446 
      4 C          -3.934530   -3.186306    0.130564 C.3       1 <1>         0.020282 
      5 C          -3.734883   -4.682568   -0.309445 C.3       1 <1>         0.052200 
      6 C          -4.416377   -3.234342    1.614628 C.3       1 <1>        -0.054830 
      7 C          -2.598773   -2.369042   -0.105765 C.3       1 <1>        -0.025215 
      8 C          -1.318652   -2.972434    0.551240 C.3       1 <1>        -0.048508 
      9 C          -0.008507   -2.325780    0.009800 C.3       1 <1>        -0.045984 
     10 C           0.052762   -0.772619    0.136758 C.3       1 <1>        -0.015931 
     11 C           0.228896   -0.400917    1.658378 C.3       1 <1>        -0.058208 
     12 C           1.266726   -0.164232   -0.703211 C.3       1 <1>        -0.001096 
     13 C           1.076298   -0.123040   -2.263961 C.3       1 <1>        -0.055018 
     14 C           2.599291   -0.940452   -0.420100 C.3       1 <1>        -0.041835 
     15 C           3.853237   -0.096245   -0.735178 C.3       1 <1>        -0.033734 
     16 C           3.812071    1.229921    0.077995 C.3       1 <1>         0.077419 
     17 C           4.244417    0.894084    1.493145 C.2       1 <1>         0.269875 
     18 C           4.824687    2.207040   -0.601521 C.3       1 <1>        -0.034050 
     19 C           4.824973    3.621494    0.026202 C.3       1 <1>        -0.046320 
     20 C           3.404163    4.256032    0.027572 C.3       1 <1>        -0.031122 
     21 C           3.467887    5.616721    0.785758 C.3       1 <1>        -0.059522 
     22 C           2.859370    4.513921   -1.410058 C.3       1 <1>        -0.059522 
     23 C           2.452580    3.281554    0.768278 C.3       1 <1>        -0.024992 
     24 C           2.440163    1.893620    0.139464 C.2       1 <1>        -0.049748 
     25 C           1.310738    1.295268   -0.293809 C.2       1 <1>        -0.040934 
     26 C          -0.009743    1.973683   -0.400839 C.2       1 <1>        -0.061672 
     27 C          -1.182248    1.318838   -0.453050 C.2       1 <1>        -0.079573 
     28 C          -1.294774   -0.194246   -0.423986 C.3       1 <1>        -0.010742 
     29 C          -2.661068   -0.805688    0.098590 C.3       1 <1>        -0.021728 
     30 C          -2.942863   -0.333221    1.565437 C.3       1 <1>        -0.058735 
     31 O           3.459493    0.851137    2.427850 O.2       1 <1>        -0.264200 
     32 O           5.543899    0.632929    1.661050 O.3       1 <1>        -0.330609 
     33 O          -3.030818   -5.446337    0.691869 O.3       1 <1>        -0.394374 
     34 O          -6.388664   -3.039539   -0.494214 O.3       1 <1>        -0.391162 
     35 H          -4.817266   -2.739174   -1.834073 H         1 <1>         0.059936 
     36 H          -5.626224   -0.805410    0.394328 H         1 <1>         0.029039 
     37 H          -5.911305   -0.652402   -1.327680 H         1 <1>         0.029039 
     38 H          -4.031532    0.777420   -0.642807 H         1 <1>         0.027158 
     39 H          -3.586308   -0.415242   -1.876837 H         1 <1>         0.027158 
     40 H          -4.701331   -5.192746   -0.437789 H         1 <1>         0.056334 
     41 H          -3.207922   -4.735517   -1.277158 H         1 <1>         0.056334 
     42 H          -4.777304   -2.272100    1.989497 H         1 <1>         0.023667 
     43 H          -5.257036   -3.939337    1.711283 H         1 <1>         0.023667 
     44 H          -3.615188   -3.581695    2.282824 H         1 <1>         0.023667 
     45 H          -2.414444   -2.508285   -1.184511 H         1 <1>         0.031300 
     46 H          -1.213597   -4.035647    0.294088 H         1 <1>         0.026847 
     47 H          -1.371921   -2.926089    1.645304 H         1 <1>         0.026847 
     48 H           0.088684   -2.607068   -1.049327 H         1 <1>         0.027105 
     49 H           0.836767   -2.783133    0.549123 H         1 <1>         0.027105 
     50 H           0.076358    0.668673    1.854157 H         1 <1>         0.023552 
     51 H          -0.455226   -0.939180    2.313768 H         1 <1>         0.023552 
     52 H           1.215667   -0.642745    2.062487 H         1 <1>         0.023552 
     53 H           1.960311    0.269495   -2.776944 H         1 <1>         0.023838 
     54 H           0.886427   -1.123978   -2.675005 H         1 <1>         0.023838 
     55 H           0.274657    0.546520   -2.603576 H         1 <1>         0.023838 
     56 H           2.627588   -1.863785   -1.021408 H         1 <1>         0.027422 
     57 H           2.725446   -1.247993    0.624051 H         1 <1>         0.027422 
     58 H           4.760904   -0.670619   -0.481346 H         1 <1>         0.027878 
     59 H           3.926133    0.091022   -1.813766 H         1 <1>         0.027878 
     60 H           5.843249    1.788551   -0.549967 H         1 <1>         0.027868 
     61 H           4.587552    2.319957   -1.670260 H         1 <1>         0.027868 
     62 H           5.521358    4.271582   -0.527791 H         1 <1>         0.027090 
     63 H           5.197042    3.535327    1.059541 H         1 <1>         0.027090 
     64 H           2.470683    6.080084    0.848841 H         1 <1>         0.023508 
     65 H           4.140484    6.314885    0.263878 H         1 <1>         0.023508 
     66 H           3.843263    5.476960    1.811386 H         1 <1>         0.023508 
     67 H           3.577776    5.110666   -1.992142 H         1 <1>         0.023508 
     68 H           2.658381    3.581035   -1.955331 H         1 <1>         0.023508 
     69 H           1.910012    5.069459   -1.362542 H         1 <1>         0.023508 
     70 H           1.473957    3.760577    0.877097 H         1 <1>         0.031565 
     71 H           2.815259    3.168068    1.800204 H         1 <1>         0.031565 
     72 H          -0.085613    3.057348   -0.473094 H         1 <1>         0.061745 
     73 H          -2.080022    1.929041   -0.539964 H         1 <1>         0.057525 
     74 H          -1.322836   -0.481874   -1.480318 H         1 <1>         0.035395 
     75 H          -2.378343    0.579009    1.797838 H         1 <1>         0.023534 
     76 H          -2.695172   -1.094308    2.312818 H         1 <1>         0.023534 
     77 H          -3.987282   -0.057930    1.747188 H         1 <1>         0.023534 
     78 H           5.751816    0.424172    2.565265 H         1 <1>         0.220236 
     79 H          -2.888754   -6.359175    0.456512 H         1 <1>         0.209420 
     80 H          -6.560303   -3.945677   -0.719583 H         1 <1>         0.209801 
@<TRIPOS>BOND
     1    1    2 1    
     2    1    4 1    
     3    1   34 1    
     4    1   35 1    
     5    2    3 1    
     6    2   36 1    
     7    2   37 1    
     8    3   29 1    
     9    3   38 1    
    10    3   39 1    
    11    4    5 1    
    12    4    6 1    
    13    4    7 1    
    14    5   33 1    
    15    5   40 1    
    16    5   41 1    
    17    6   42 1    
    18    6   43 1    
    19    6   44 1    
    20    7    8 1    
    21    7   29 1    
    22    7   45 1    
    23    8    9 1    
    24    8   46 1    
    25    8   47 1    
    26    9   10 1    
    27    9   48 1    
    28    9   49 1    
    29   10   11 1    
    30   10   12 1    
    31   10   28 1    
    32   11   50 1    
    33   11   51 1    
    34   11   52 1    
    35   12   13 1    
    36   12   14 1    
    37   12   25 1    
    38   13   53 1    
    39   13   54 1    
    40   13   55 1    
    41   14   15 1    
    42   14   56 1    
    43   14   57 1    
    44   15   16 1    
    45   15   58 1    
    46   15   59 1    
    47   16   17 1    
    48   16   18 1    
    49   16   24 1    
    50   17   31 2    
    51   17   32 1    
    52   18   19 1    
    53   18   60 1    
    54   18   61 1    
    55   19   20 1    
    56   19   62 1    
    57   19   63 1    
    58   20   21 1    
    59   20   22 1    
    60   20   23 1    
    61   21   64 1    
    62   21   65 1    
    63   21   66 1    
    64   22   67 1    
    65   22   68 1    
    66   22   69 1    
    67   23   24 1    
    68   23   70 1    
    69   23   71 1    
    70   24   25 2    
    71   25   26 1    
    72   26   27 2    
    73   26   72 1    
    74   27   28 1    
    75   27   73 1    
    76   28   29 1    
    77   28   74 1    
    78   29   30 1    
    79   30   75 1    
    80   30   76 1    
    81   30   77 1    
    82   32   78 1    
    83   33   79 1    
    84   34   80 1    
@<TRIPOS>SUBSTRUCTURE
     1 ****        1 TEMP              0 ****  ****    0 ROOT 
@<TRIPOS>NORMAL
@<TRIPOS>FF_PBC
FORCE_FIELD_SETUP_FEATURE Force Field Setup information
v1.0  0 0.000000 0.000000 0.000000 0.000000 0.000000 0.000000 NONE 0 0 0 0 1 0 0 0 0 0 0 0 0
