@<TRIPOS>MOLECULE
MOL012985
  144   152     1     1     0
SMALL
GASTEIGER


@<TRIPOS>ATOM
      1 C           2.420686    3.275993   -2.103836 C.3       1 <1>        -0.048911 
      2 C           2.422625    2.589131   -0.691407 C.3       1 <1>        -0.029356 
      3 C           3.808423    1.912529   -0.317227 C.3       1 <1>        -0.020557 
      4 C           4.974697    2.311436   -1.311267 C.3       1 <1>         0.008082 
      5 C           4.613035    2.221869   -2.842608 C.3       1 <1>        -0.022168 
      6 C           3.112825    2.412039   -3.179284 C.3       1 <1>        -0.048815 
      7 C           1.050543    1.819646   -0.385600 C.3       1 <1>        -0.025246 
      8 C           1.230992    0.810941    0.805654 C.3       1 <1>        -0.027836 
      9 C           2.471450   -0.126219    0.564967 C.3       1 <1>        -0.048617 
     10 C           3.607912    0.379855   -0.371289 C.3       1 <1>        -0.046476 
     11 C           0.489260    0.929556   -1.550130 C.3       1 <1>        -0.044721 
     12 C          -0.792674    0.114887   -1.199611 C.3       1 <1>        -0.025470 
     13 C          -0.640452   -0.808806    0.040607 C.3       1 <1>         0.067174 
     14 C          -0.024732   -0.042733    1.264651 C.3       1 <1>        -0.005230 
     15 C           0.012872    2.969033   -0.065418 C.3       1 <1>        -0.059019 
     16 C           4.265720    2.288938    1.140256 C.3       1 <1>        -0.058701 
     17 C           0.430925   -1.032066    2.397577 C.3       1 <1>        -0.057181 
     18 C          -1.146317    0.812729    1.942805 C.3       1 <1>        -0.057181 
     19 C           5.619242    3.720780   -1.081256 C.3       1 <1>         0.010319 
     20 C           6.529203    3.536942   -2.301654 C.3       1 <1>         0.176775 
     21 C           5.501805    3.355312   -3.417380 C.3       1 <1>         0.047510 
     22 O           7.425126    4.527301   -2.812520 O.3       1 <1>        -0.341853 
     23 C           7.399508    4.432472   -4.259927 C.3       1 <1>         0.094142 
     24 C           6.412285    3.283004   -4.669923 C.3       1 <1>         0.097611 
     25 O           5.682221    3.666848   -5.850730 O.3       1 <1>        -0.385808 
     26 C           8.823203    4.428405   -4.874461 C.3       1 <1>        -0.005301 
     27 C           8.788770    4.651789   -6.373096 C.2       1 <1>        -0.082754 
     28 C           9.004455    5.817492   -7.006284 C.2       1 <1>        -0.079535 
     29 C           8.980518    5.904614   -8.518161 C.3       1 <1>        -0.044048 
     30 C           9.286134    7.115943   -6.282884 C.3       1 <1>        -0.044048 
     31 C           7.091153    1.904427   -4.932445 C.3       1 <1>        -0.033167 
     32 O           7.202974    2.305546   -1.993681 O.3       1 <1>        -0.347600 
     33 C           6.305666    1.496988   -1.214220 C.3       1 <1>         0.057503 
     34 O          -1.998580   -1.233502    0.299211 O.3       1 <1>        -0.344881 
     35 C          -2.157476   -2.599085    0.721669 C.3       1 <1>         0.188605 
     36 O          -1.878339   -3.447307   -0.410963 O.3       1 <1>        -0.340512 
     37 C          -2.052071   -4.855648   -0.131472 C.3       1 <1>         0.113015 
     38 C          -3.501411   -5.155415    0.344275 C.3       1 <1>         0.112270 
     39 C          -3.843671   -4.263526    1.564371 C.3       1 <1>         0.120942 
     40 C          -3.631853   -2.782326    1.153630 C.3       1 <1>         0.140989 
     41 O          -5.204197   -4.564621    1.977703 O.3       1 <1>        -0.340042 
     42 C          -1.718056   -5.667527   -1.409666 C.3       1 <1>         0.073015 
     43 C          -5.438206   -4.341740    3.388079 C.3       1 <1>         0.188437 
     44 O          -4.536351   -5.203714    4.112335 O.3       1 <1>        -0.340520 
     45 C          -4.598918   -5.039984    5.544462 C.3       1 <1>         0.113005 
     46 C          -6.017543   -5.401106    6.055068 C.3       1 <1>         0.111896 
     47 C          -7.072301   -4.551911    5.303332 C.3       1 <1>         0.114061 
     48 C          -6.893193   -4.719092    3.772563 C.3       1 <1>         0.134124 
     49 C          -3.529942   -5.952946    6.198149 C.3       1 <1>         0.073015 
     50 O          -8.384179   -4.986542    5.708773 O.3       1 <1>        -0.386401 
     51 O          -6.093078   -5.160649    7.472544 O.3       1 <1>        -0.386488 
     52 O          -3.967545   -1.907628    2.257670 O.3       1 <1>        -0.337750 
     53 O          -7.879078   -3.891994    3.123364 O.3       1 <1>        -0.384104 
     54 C          -4.713842   -0.722098    1.896879 C.3       1 <1>         0.188431 
     55 O          -4.563036    0.147413    3.039066 O.3       1 <1>        -0.343067 
     56 C          -5.228980    1.427499    2.921641 C.3       1 <1>         0.087307 
     57 C          -6.741336    1.293225    2.584023 C.3       1 <1>         0.109478 
     58 C          -6.947006    0.322807    1.393866 C.3       1 <1>         0.113972 
     59 C          -6.234214   -1.013543    1.714941 C.3       1 <1>         0.134123 
     60 C          -4.469324    2.421102    1.997660 C.3       1 <1>        -0.036060 
     61 O          -6.440798    0.901113    0.175301 O.3       1 <1>        -0.386402 
     62 O          -6.578048   -1.937560    0.660513 O.3       1 <1>        -0.384104 
     63 O          -7.425299    0.804520    3.758153 O.3       1 <1>        -0.386579 
     64 O          -2.215118   -5.516921    5.800031 O.3       1 <1>        -0.392366 
     65 O          -0.315884   -5.534418   -1.713021 O.3       1 <1>        -0.392366 
     66 O          -3.604558   -6.546084    0.706165 O.3       1 <1>        -0.386478 
     67 H           2.921597    4.252906   -2.076415 H         1 <1>         0.026837 
     68 H           1.410033    3.501527   -2.469992 H         1 <1>         0.026837 
     69 H           2.414821    3.450644   -0.001801 H         1 <1>         0.031156 
     70 H           4.903352    1.259691   -3.287213 H         1 <1>         0.031230 
     71 H           2.611480    1.437731   -3.243534 H         1 <1>         0.026833 
     72 H           3.011930    2.876464   -4.174736 H         1 <1>         0.026833 
     73 H           1.446291    1.446909    1.673119 H         1 <1>         0.031210 
     74 H           2.923628   -0.351154    1.545898 H         1 <1>         0.026846 
     75 H           2.175844   -1.090691    0.130001 H         1 <1>         0.026846 
     76 H           4.532226   -0.138965   -0.070443 H         1 <1>         0.027088 
     77 H           3.434334    0.087690   -1.415216 H         1 <1>         0.027088 
     78 H           0.237469    1.537282   -2.430868 H         1 <1>         0.027149 
     79 H           1.220100    0.176557   -1.863019 H         1 <1>         0.027149 
     80 H          -1.046050   -0.528073   -2.061311 H         1 <1>         0.029047 
     81 H          -1.666203    0.766265   -1.069426 H         1 <1>         0.029047 
     82 H          -0.007903   -1.655787   -0.271219 H         1 <1>         0.060224 
     83 H           0.218658    3.908249   -0.596253 H         1 <1>         0.023525 
     84 H          -1.019757    2.759628   -0.351916 H         1 <1>         0.023525 
     85 H           0.035120    3.230894    1.002890 H         1 <1>         0.023525 
     86 H           5.196693    1.784606    1.425840 H         1 <1>         0.023534 
     87 H           4.422156    3.371763    1.246356 H         1 <1>         0.023534 
     88 H           3.546579    2.022157    1.916753 H         1 <1>         0.023534 
     89 H           1.051480   -0.500362    3.135476 H         1 <1>         0.023587 
     90 H          -0.401487   -1.459755    2.973070 H         1 <1>         0.023587 
     91 H           1.008458   -1.883132    2.008281 H         1 <1>         0.023587 
     92 H          -0.732473    1.483872    2.710467 H         1 <1>         0.023587 
     93 H          -1.898289    0.178739    2.436006 H         1 <1>         0.023587 
     94 H          -1.715759    1.401154    1.226054 H         1 <1>         0.023587 
     95 H           6.242552    3.830734   -0.178513 H         1 <1>         0.032341 
     96 H           4.952963    4.590740   -1.146524 H         1 <1>         0.032341 
     97 H           4.914347    4.285905   -3.510602 H         1 <1>         0.038442 
     98 H           6.928514    5.380996   -4.570736 H         1 <1>         0.062876 
     99 H           4.988372    3.053135   -6.067537 H         1 <1>         0.210274 
    100 H           9.409947    5.214447   -4.375547 H         1 <1>         0.033335 
    101 H           9.330369    3.479703   -4.645133 H         1 <1>         0.033335 
    102 H           8.569694    3.782087   -6.989297 H         1 <1>         0.057228 
    103 H           8.907236    4.922289   -9.008604 H         1 <1>         0.027427 
    104 H           9.901756    6.389932   -8.873331 H         1 <1>         0.027427 
    105 H           8.117322    6.508907   -8.834220 H         1 <1>         0.027427 
    106 H          10.352135    7.152155   -6.012355 H         1 <1>         0.027427 
    107 H           9.061710    7.982095   -6.924340 H         1 <1>         0.027427 
    108 H           8.674868    7.220194   -5.374672 H         1 <1>         0.027427 
    109 H           7.765597    1.580629   -4.131073 H         1 <1>         0.025817 
    110 H           6.333466    1.124243   -5.088340 H         1 <1>         0.025817 
    111 H           7.678201    1.948346   -5.858293 H         1 <1>         0.025817 
    112 H           6.733833    1.443570   -0.203404 H         1 <1>         0.056658 
    113 H           6.272463    0.471808   -1.614867 H         1 <1>         0.056658 
    114 H          -1.502725   -2.845481    1.566640 H         1 <1>         0.093760 
    115 H          -1.341788   -5.177409    0.648912 H         1 <1>         0.064668 
    116 H          -4.206190   -4.934087   -0.476624 H         1 <1>         0.064683 
    117 H          -3.117256   -4.530937    2.349156 H         1 <1>         0.065147 
    118 H          -4.199208   -2.573881    0.235137 H         1 <1>         0.067487 
    119 H          -2.331229   -5.286168   -2.242931 H         1 <1>         0.058370 
    120 H          -1.958810   -6.731997   -1.248721 H         1 <1>         0.058370 
    121 H          -5.271923   -3.286371    3.650495 H         1 <1>         0.093753 
    122 H          -4.356350   -4.001800    5.827816 H         1 <1>         0.064668 
    123 H          -6.208628   -6.466518    5.840371 H         1 <1>         0.064673 
    124 H          -6.933006   -3.491313    5.578210 H         1 <1>         0.064758 
    125 H          -7.059294   -5.780881    3.518557 H         1 <1>         0.067095 
    126 H          -3.701820   -6.992645    5.871932 H         1 <1>         0.058370 
    127 H          -3.620712   -5.903929    7.296927 H         1 <1>         0.058370 
    128 H          -9.070556   -4.502765    5.256445 H         1 <1>         0.210005 
    129 H          -6.961860   -5.351335    7.816570 H         1 <1>         0.210004 
    130 H          -7.899160   -4.026931    2.182227 H         1 <1>         0.210110 
    131 H          -4.273721   -0.258905    0.999943 H         1 <1>         0.093753 
    132 H          -5.178402    1.866798    3.932629 H         1 <1>         0.062075 
    133 H          -7.151317    2.284357    2.320947 H         1 <1>         0.064584 
    134 H          -8.029065    0.135308    1.273196 H         1 <1>         0.064757 
    135 H          -6.631000   -1.391940    2.673415 H         1 <1>         0.067095 
    136 H          -4.387452    2.071011    0.960445 H         1 <1>         0.025536 
    137 H          -4.975652    3.398565    1.985782 H         1 <1>         0.025536 
    138 H          -3.455549    2.575604    2.395355 H         1 <1>         0.025536 
    139 H          -6.540106    0.310671   -0.566886 H         1 <1>         0.210005 
    140 H          -6.342374   -2.837917    0.862165 H         1 <1>         0.210110 
    141 H          -8.370560    0.743983    3.656866 H         1 <1>         0.210002 
    142 H          -1.516446   -6.053514    6.163038 H         1 <1>         0.209508 
    143 H          -0.055483   -6.008752   -2.496907 H         1 <1>         0.209508 
    144 H          -4.467453   -6.759061    1.052587 H         1 <1>         0.210004 
@<TRIPOS>BOND
     1    1    2 1    
     2    1    6 1    
     3    1   67 1    
     4    1   68 1    
     5    2    3 1    
     6    2    7 1    
     7    2   69 1    
     8    3    4 1    
     9    3   10 1    
    10    3   16 1    
    11    4    5 1    
    12    4   19 1    
    13    4   33 1    
    14    5    6 1    
    15    5   21 1    
    16    5   70 1    
    17    6   71 1    
    18    6   72 1    
    19    7    8 1    
    20    7   11 1    
    21    7   15 1    
    22    8    9 1    
    23    8   14 1    
    24    8   73 1    
    25    9   10 1    
    26    9   74 1    
    27    9   75 1    
    28   10   76 1    
    29   10   77 1    
    30   11   12 1    
    31   11   78 1    
    32   11   79 1    
    33   12   13 1    
    34   12   80 1    
    35   12   81 1    
    36   13   14 1    
    37   13   34 1    
    38   13   82 1    
    39   14   17 1    
    40   14   18 1    
    41   15   83 1    
    42   15   84 1    
    43   15   85 1    
    44   16   86 1    
    45   16   87 1    
    46   16   88 1    
    47   17   89 1    
    48   17   90 1    
    49   17   91 1    
    50   18   92 1    
    51   18   93 1    
    52   18   94 1    
    53   19   20 1    
    54   19   95 1    
    55   19   96 1    
    56   20   21 1    
    57   20   22 1    
    58   20   32 1    
    59   21   24 1    
    60   21   97 1    
    61   22   23 1    
    62   23   24 1    
    63   23   26 1    
    64   23   98 1    
    65   24   25 1    
    66   24   31 1    
    67   25   99 1    
    68   26   27 1    
    69   26  100 1    
    70   26  101 1    
    71   27   28 2    
    72   27  102 1    
    73   28   29 1    
    74   28   30 1    
    75   29  103 1    
    76   29  104 1    
    77   29  105 1    
    78   30  106 1    
    79   30  107 1    
    80   30  108 1    
    81   31  109 1    
    82   31  110 1    
    83   31  111 1    
    84   32   33 1    
    85   33  112 1    
    86   33  113 1    
    87   34   35 1    
    88   35   36 1    
    89   35   40 1    
    90   35  114 1    
    91   36   37 1    
    92   37   38 1    
    93   37   42 1    
    94   37  115 1    
    95   38   39 1    
    96   38   66 1    
    97   38  116 1    
    98   39   40 1    
    99   39   41 1    
   100   39  117 1    
   101   40   52 1    
   102   40  118 1    
   103   41   43 1    
   104   42   65 1    
   105   42  119 1    
   106   42  120 1    
   107   43   44 1    
   108   43   48 1    
   109   43  121 1    
   110   44   45 1    
   111   45   46 1    
   112   45   49 1    
   113   45  122 1    
   114   46   47 1    
   115   46   51 1    
   116   46  123 1    
   117   47   48 1    
   118   47   50 1    
   119   47  124 1    
   120   48   53 1    
   121   48  125 1    
   122   49   64 1    
   123   49  126 1    
   124   49  127 1    
   125   50  128 1    
   126   51  129 1    
   127   52   54 1    
   128   53  130 1    
   129   54   55 1    
   130   54   59 1    
   131   54  131 1    
   132   55   56 1    
   133   56   57 1    
   134   56   60 1    
   135   56  132 1    
   136   57   58 1    
   137   57   63 1    
   138   57  133 1    
   139   58   59 1    
   140   58   61 1    
   141   58  134 1    
   142   59   62 1    
   143   59  135 1    
   144   60  136 1    
   145   60  137 1    
   146   60  138 1    
   147   61  139 1    
   148   62  140 1    
   149   63  141 1    
   150   64  142 1    
   151   65  143 1    
   152   66  144 1    
@<TRIPOS>SUBSTRUCTURE
     1 ****        1 TEMP              0 ****  ****    0 ROOT 
@<TRIPOS>NORMAL
@<TRIPOS>FF_PBC
FORCE_FIELD_SETUP_FEATURE Force Field Setup information
v1.0  0 0.000000 0.000000 0.000000 0.000000 0.000000 0.000000 NONE 0 0 0 0 1 0 0 0 0 0 0 0 0
