@<TRIPOS>MOLECULE
MOL000932
   39    38     1     1     0
SMALL
GASTEIGER


@<TRIPOS>ATOM
      1 C           5.375025    2.302996   -0.007058 C.2       1 <1>        -0.098453 
      2 C           4.596174    1.467829   -0.706419 C.2       1 <1>        -0.066231 
      3 C           4.023550    0.206982   -0.177167 C.2       1 <1>        -0.054618 
      4 C           2.835742   -0.204270   -0.651504 C.2       1 <1>        -0.077369 
      5 C           2.080641   -1.442000   -0.217799 C.3       1 <1>        -0.015764 
      6 C           0.629216   -1.097492    0.032123 C.2       1 <1>        -0.081268 
      7 C          -0.404974   -1.934120   -0.161497 C.2       1 <1>        -0.075949 
      8 C          -1.855248   -1.534609    0.052706 C.3       1 <1>        -0.028553 
      9 C          -2.162266   -0.029643    0.289426 C.3       1 <1>        -0.030848 
     10 C          -3.648812    0.238482    0.370055 C.2       1 <1>        -0.084989 
     11 C          -4.217400    1.445041    0.208533 C.2       1 <1>        -0.079608 
     12 C          -5.719941    1.621091    0.266216 C.3       1 <1>        -0.044049 
     13 C          -3.428803    2.712639   -0.042937 C.3       1 <1>        -0.044049 
     14 C          -0.198713   -3.364698   -0.614630 C.3       1 <1>        -0.043769 
     15 C           4.784585   -0.585878    0.862203 C.3       1 <1>        -0.040013 
     16 H           5.764960    3.211881   -0.466497 H         1 <1>         0.053489 
     17 H           5.639824    2.118362    1.032978 H         1 <1>         0.053489 
     18 H           4.363427    1.744006   -1.736603 H         1 <1>         0.061432 
     19 H           2.343572    0.392650   -1.421731 H         1 <1>         0.057771 
     20 H           2.196512   -2.173448   -1.031298 H         1 <1>         0.034987 
     21 H           2.463607   -1.881279    0.713897 H         1 <1>         0.034987 
     22 H           0.463764   -0.086124    0.398663 H         1 <1>         0.057461 
     23 H          -2.413253   -1.841355   -0.847381 H         1 <1>         0.031285 
     24 H          -2.241193   -2.110853    0.909073 H         1 <1>         0.031285 
     25 H          -1.714577    0.300444    1.240197 H         1 <1>         0.031044 
     26 H          -1.726430    0.539771   -0.546983 H         1 <1>         0.031044 
     27 H          -4.290664   -0.618945    0.575744 H         1 <1>         0.057155 
     28 H          -5.982809    2.257927    1.124238 H         1 <1>         0.027427 
     29 H          -6.063944    2.111990   -0.656653 H         1 <1>         0.027427 
     30 H          -6.263613    0.669665    0.368091 H         1 <1>         0.027427 
     31 H          -3.890437    3.557576    0.490047 H         1 <1>         0.027427 
     32 H          -3.439521    2.932442   -1.120868 H         1 <1>         0.027427 
     33 H          -2.385345    2.650268    0.296574 H         1 <1>         0.027427 
     34 H           0.712216   -3.807670   -0.185939 H         1 <1>         0.027436 
     35 H          -1.039633   -4.002894   -0.302987 H         1 <1>         0.027436 
     36 H          -0.132799   -3.389949   -1.712584 H         1 <1>         0.027436 
     37 H           4.810770   -1.652495    0.593589 H         1 <1>         0.027744 
     38 H           5.831211   -0.257649    0.937441 H         1 <1>         0.027744 
     39 H           4.305875   -0.466967    1.845743 H         1 <1>         0.027744 
@<TRIPOS>BOND
     1    1    2 2    
     2    1   16 1    
     3    1   17 1    
     4    2    3 1    
     5    2   18 1    
     6    3    4 2    
     7    3   15 1    
     8    4    5 1    
     9    4   19 1    
    10    5    6 1    
    11    5   20 1    
    12    5   21 1    
    13    6    7 2    
    14    6   22 1    
    15    7    8 1    
    16    7   14 1    
    17    8    9 1    
    18    8   23 1    
    19    8   24 1    
    20    9   10 1    
    21    9   25 1    
    22    9   26 1    
    23   10   11 2    
    24   10   27 1    
    25   11   12 1    
    26   11   13 1    
    27   12   28 1    
    28   12   29 1    
    29   12   30 1    
    30   13   31 1    
    31   13   32 1    
    32   13   33 1    
    33   14   34 1    
    34   14   35 1    
    35   14   36 1    
    36   15   37 1    
    37   15   38 1    
    38   15   39 1    
@<TRIPOS>SUBSTRUCTURE
     1 ****        1 TEMP              0 ****  ****    0 ROOT 
@<TRIPOS>NORMAL
@<TRIPOS>FF_PBC
FORCE_FIELD_SETUP_FEATURE Force Field Setup information
v1.0  0 0.000000 0.000000 0.000000 0.000000 0.000000 0.000000 NONE 0 0 0 0 1 0 0 0 0 0 0 0 0
