@<TRIPOS>MOLECULE
MOL004642
  129   135     1     1     0
SMALL
GASTEIGER


@<TRIPOS>ATOM
      1 O          -1.964789    0.697963    2.111187 O.3       1 <1>        -0.375443 
      2 O          -0.200218    0.139679   -2.413430 O.3       1 <1>        -0.340720 
      3 O           3.856647   -1.047500    4.233959 O.3       1 <1>        -0.391114 
      4 O           3.257517    1.506485    4.698867 O.3       1 <1>        -0.394355 
      5 O           1.058051    1.760594   -3.316621 O.3       1 <1>        -0.336275 
      6 O          -1.343285    0.716375   -5.746931 O.3       1 <1>        -0.383696 
      7 O           0.302525    2.931563   -5.882538 O.3       1 <1>        -0.340041 
      8 O           1.598249    0.485965   -5.736029 O.3       1 <1>        -0.389613 
      9 O          -1.247384    4.462752   -2.295166 O.3       1 <1>        -0.392366 
     10 O          -0.654789    4.921275   -6.764091 O.3       1 <1>        -0.340520 
     11 O           2.106226    5.651124   -7.616150 O.3       1 <1>        -0.384104 
     12 O           2.185456    3.752054   -9.693893 O.3       1 <1>        -0.386401 
     13 O           0.189189    5.724079   -9.554148 O.3       1 <1>        -0.386488 
     14 O          -2.662789    2.734461   -9.015754 O.3       1 <1>        -0.392366 
     15 C          -0.733465   -2.931160    2.734963 C.3       1 <1>        -0.016923 
     16 C          -1.546304   -1.757565    2.024411 C.3       1 <1>         0.000718 
     17 C          -2.086438   -1.946017    0.512914 C.3       1 <1>        -0.022591 
     18 C           0.284642   -2.543511    3.937214 C.3       1 <1>        -0.002626 
     19 C          -1.228875   -2.869726   -0.446725 C.3       1 <1>        -0.027744 
     20 C           0.078919   -3.686128    1.639438 C.3       1 <1>        -0.046184 
     21 C          -0.093230   -1.209058    4.578694 C.2       1 <1>        -0.060744 
     22 C          -0.707849   -4.091128    0.371034 C.3       1 <1>        -0.048607 
     23 C          -0.257336   -2.214213   -1.533373 C.3       1 <1>        -0.005218 
     24 C           0.449397   -0.812148    5.949704 C.3       1 <1>        -0.008707 
     25 C          -1.015156   -0.354897    2.414480 C.3       1 <1>         0.080545 
     26 C           1.921460   -0.394966    5.598820 C.3       1 <1>         0.026310 
     27 C           1.759143   -2.122895    3.578296 C.3       1 <1>        -0.016608 
     28 C          -2.240804   -0.579036   -0.232518 C.3       1 <1>        -0.044629 
     29 C           2.613460   -1.538621    4.772363 C.3       1 <1>         0.064286 
     30 C          -1.836739   -3.895705    3.316755 C.3       1 <1>        -0.058408 
     31 C          -0.983733   -1.083150   -2.378036 C.3       1 <1>         0.067509 
     32 C          -0.764032   -0.273984    3.894653 C.2       1 <1>        -0.055289 
     33 C          -3.560067   -2.530275    0.552576 C.3       1 <1>        -0.058927 
     34 C          -2.363166   -0.711459   -1.770978 C.3       1 <1>        -0.025459 
     35 C           0.466498   -3.816367    4.851011 C.3       1 <1>        -0.055240 
     36 C           0.246813   -1.687271    7.226056 C.3       1 <1>        -0.040647 
     37 C           2.713921   -0.038063    6.902674 C.3       1 <1>        -0.041883 
     38 C           0.982682   -1.141323    8.487672 C.3       1 <1>        -0.034297 
     39 C           2.486658   -0.986503    8.111147 C.3       1 <1>        -0.047178 
     40 C           0.216405   -3.294317   -2.571925 C.3       1 <1>        -0.057181 
     41 C           1.066900   -1.652638   -0.923208 C.3       1 <1>        -0.057181 
     42 C           1.941588    0.916805    4.730612 C.3       1 <1>         0.052730 
     43 C           0.865139   -2.184676    9.645548 C.3       1 <1>        -0.059793 
     44 C           0.361867    0.190532    9.017094 C.3       1 <1>        -0.059793 
     45 C           0.187864    0.683069   -3.706732 C.3       1 <1>         0.223183 
     46 C          -1.393047    2.021075    1.988204 C.3       1 <1>         0.037218 
     47 C          -0.972580    1.355096   -4.506450 C.3       1 <1>         0.139751 
     48 C           1.075024   -0.232687   -4.599007 C.3       1 <1>         0.100828 
     49 C          -0.501857    2.821389   -4.682652 C.3       1 <1>         0.120965 
     50 C           0.345581    2.999070   -3.395936 C.3       1 <1>         0.113801 
     51 C          -0.489603    3.252724   -2.111691 C.3       1 <1>         0.073037 
     52 C           0.555504    4.284776   -6.311121 C.3       1 <1>         0.188437 
     53 C           1.663829    4.296776   -7.394081 C.3       1 <1>         0.134124 
     54 C           1.142849    3.650604   -8.701384 C.3       1 <1>         0.114061 
     55 C          -1.195513    4.382844   -7.990394 C.3       1 <1>         0.113005 
     56 C          -0.152937    4.382281   -9.147260 C.3       1 <1>         0.111896 
     57 C          -1.900570    3.010093   -7.824009 C.3       1 <1>         0.073015 
     58 H           4.373130   -1.702485    3.775026 H         1 <1>         0.209802 
     59 H           3.315473    2.302503    4.178673 H         1 <1>         0.209421 
     60 H          -1.689547   -0.162771   -5.635846 H         1 <1>         0.210126 
     61 H           2.164441   -0.037872   -6.294529 H         1 <1>         0.209629 
     62 H          -1.764882    4.702128   -1.531356 H         1 <1>         0.209508 
     63 H           2.717148    5.701780   -8.345784 H         1 <1>         0.210110 
     64 H           1.931791    3.394691  -10.539035 H         1 <1>         0.210005 
     65 H          -0.551186    6.233776   -9.866620 H         1 <1>         0.210004 
     66 H          -3.139347    1.909875   -8.972823 H         1 <1>         0.209508 
     67 H          -2.454887   -1.638618    2.634246 H         1 <1>         0.033983 
     68 H          -1.952435   -3.338779   -1.134357 H         1 <1>         0.031211 
     69 H           0.893609   -3.040108    1.327919 H         1 <1>         0.027097 
     70 H           0.534352   -4.605791    2.033326 H         1 <1>         0.027097 
     71 H          -0.069721   -4.739879   -0.242141 H         1 <1>         0.026846 
     72 H          -1.540533   -4.735523    0.688989 H         1 <1>         0.026846 
     73 H          -0.056590    0.105460    6.277483 H         1 <1>         0.035287 
     74 H          -0.066093   -0.190590    1.890157 H         1 <1>         0.064325 
     75 H           2.311241   -2.999675    3.202727 H         1 <1>         0.029875 
     76 H           1.767664   -1.382073    2.767918 H         1 <1>         0.029875 
     77 H          -3.120252   -0.032065    0.147092 H         1 <1>         0.027150 
     78 H          -1.355488    0.055434   -0.106060 H         1 <1>         0.027150 
     79 H           2.905382   -2.315617    5.491752 H         1 <1>         0.059982 
     80 H          -1.490698   -4.915651    3.529249 H         1 <1>         0.023543 
     81 H          -2.259876   -3.462027    4.236205 H         1 <1>         0.023543 
     82 H          -2.687138   -4.046040    2.655803 H         1 <1>         0.023543 
     83 H          -1.220135   -1.420060   -3.400488 H         1 <1>         0.060234 
     84 H          -1.100208    0.635673    4.388245 H         1 <1>         0.059746 
     85 H          -4.194325   -2.031279    1.300690 H         1 <1>         0.023526 
     86 H          -4.105414   -2.412061   -0.390029 H         1 <1>         0.023526 
     87 H          -3.602140   -3.608091    0.734988 H         1 <1>         0.023526 
     88 H          -2.706805    0.257257   -2.156591 H         1 <1>         0.029047 
     89 H          -3.118694   -1.440066   -2.093973 H         1 <1>         0.029047 
     90 H          -0.393335   -3.968515    5.518232 H         1 <1>         0.023830 
     91 H           1.368479   -3.847889    5.462031 H         1 <1>         0.023830 
     92 H           0.605085   -4.730170    4.264181 H         1 <1>         0.023830 
     93 H          -0.831068   -1.803656    7.427008 H         1 <1>         0.027632 
     94 H           0.661660   -2.682918    7.119319 H         1 <1>         0.027632 
     95 H           2.454857    0.979037    7.233240 H         1 <1>         0.027247 
     96 H           3.792283   -0.023616    6.672788 H         1 <1>         0.027247 
     97 H           2.915451   -1.972590    7.873252 H         1 <1>         0.027063 
     98 H           3.039320   -0.596034    8.981935 H         1 <1>         0.027063 
     99 H           0.818556   -2.828701   -3.362674 H         1 <1>         0.023587 
    100 H           0.859951   -4.072795   -2.142732 H         1 <1>         0.023587 
    101 H          -0.638556   -3.792763   -3.054197 H         1 <1>         0.023587 
    102 H           1.656115   -1.090580   -1.658959 H         1 <1>         0.023587 
    103 H           0.862936   -0.981223   -0.083442 H         1 <1>         0.023587 
    104 H           1.741072   -2.454623   -0.596443 H         1 <1>         0.023587 
    105 H           1.265057    1.671955    5.165032 H         1 <1>         0.056353 
    106 H           1.619706    0.738099    3.695487 H         1 <1>         0.056353 
    107 H           1.383149   -1.825971   10.548345 H         1 <1>         0.023499 
    108 H          -0.191452   -2.358674    9.901264 H         1 <1>         0.023499 
    109 H           1.310794   -3.153130    9.370470 H         1 <1>         0.023499 
    110 H           0.887971    0.514579    9.928007 H         1 <1>         0.023499 
    111 H           0.405999    1.025677    8.307965 H         1 <1>         0.023499 
    112 H          -0.696783    0.031887    9.273243 H         1 <1>         0.023499 
    113 H          -2.222316    2.708608    1.766689 H         1 <1>         0.052375 
    114 H          -0.678775    2.072401    1.152294 H         1 <1>         0.052375 
    115 H          -0.890334    2.377739    2.898266 H         1 <1>         0.052375 
    116 H          -1.878024    1.401611   -3.889731 H         1 <1>         0.067505 
    117 H           1.917010   -0.594836   -3.989761 H         1 <1>         0.061163 
    118 H           0.500879   -1.093662   -4.968722 H         1 <1>         0.061163 
    119 H          -1.358976    3.514573   -4.729506 H         1 <1>         0.065148 
    120 H           1.074396    3.817897   -3.474758 H         1 <1>         0.064689 
    121 H          -1.164547    2.414683   -1.882898 H         1 <1>         0.058370 
    122 H           0.208854    3.358439   -1.263977 H         1 <1>         0.058370 
    123 H           0.942532    4.904890   -5.489194 H         1 <1>         0.093753 
    124 H           2.519427    3.704406   -7.024102 H         1 <1>         0.067095 
    125 H           0.948532    2.581356   -8.513290 H         1 <1>         0.064758 
    126 H          -2.003821    5.079669   -8.264991 H         1 <1>         0.064668 
    127 H          -0.568337    3.855311  -10.024000 H         1 <1>         0.064673 
    128 H          -2.569838    3.057128   -6.948795 H         1 <1>         0.058370 
    129 H          -1.174693    2.201864   -7.669166 H         1 <1>         0.058370 
@<TRIPOS>BOND
     1   25    1 1    
     2    1   46 1    
     3    2   31 1    
     4   45    2 1    
     5   29    3 1    
     6    3   58 1    
     7   42    4 1    
     8    4   59 1    
     9    5   45 1    
    10   50    5 1    
    11   47    6 1    
    12    6   60 1    
    13    7   49 1    
    14   52    7 1    
    15   48    8 1    
    16    8   61 1    
    17   51    9 1    
    18    9   62 1    
    19   10   52 1    
    20   55   10 1    
    21   53   11 1    
    22   11   63 1    
    23   54   12 1    
    24   12   64 1    
    25   56   13 1    
    26   13   65 1    
    27   57   14 1    
    28   14   66 1    
    29   16   15 1    
    30   15   18 1    
    31   20   15 1    
    32   15   30 1    
    33   17   16 1    
    34   16   25 1    
    35   16   67 1    
    36   19   17 1    
    37   28   17 1    
    38   17   33 1    
    39   18   21 1    
    40   18   27 1    
    41   18   35 1    
    42   19   22 1    
    43   23   19 1    
    44   19   68 1    
    45   22   20 1    
    46   20   69 1    
    47   20   70 1    
    48   21   24 1    
    49   32   21 2    
    50   22   71 1    
    51   22   72 1    
    52   31   23 1    
    53   23   40 1    
    54   23   41 1    
    55   24   26 1    
    56   24   36 1    
    57   24   73 1    
    58   25   32 1    
    59   25   74 1    
    60   29   26 1    
    61   26   37 1    
    62   26   42 1    
    63   27   29 1    
    64   27   75 1    
    65   27   76 1    
    66   34   28 1    
    67   28   77 1    
    68   28   78 1    
    69   29   79 1    
    70   30   80 1    
    71   30   81 1    
    72   30   82 1    
    73   31   34 1    
    74   31   83 1    
    75   32   84 1    
    76   33   85 1    
    77   33   86 1    
    78   33   87 1    
    79   34   88 1    
    80   34   89 1    
    81   35   90 1    
    82   35   91 1    
    83   35   92 1    
    84   36   38 1    
    85   36   93 1    
    86   36   94 1    
    87   37   39 1    
    88   37   95 1    
    89   37   96 1    
    90   38   39 1    
    91   38   43 1    
    92   38   44 1    
    93   39   97 1    
    94   39   98 1    
    95   40   99 1    
    96   40  100 1    
    97   40  101 1    
    98   41  102 1    
    99   41  103 1    
   100   41  104 1    
   101   42  105 1    
   102   42  106 1    
   103   43  107 1    
   104   43  108 1    
   105   43  109 1    
   106   44  110 1    
   107   44  111 1    
   108   44  112 1    
   109   47   45 1    
   110   45   48 1    
   111   46  113 1    
   112   46  114 1    
   113   46  115 1    
   114   49   47 1    
   115   47  116 1    
   116   48  117 1    
   117   48  118 1    
   118   49   50 1    
   119   49  119 1    
   120   50   51 1    
   121   50  120 1    
   122   51  121 1    
   123   51  122 1    
   124   52   53 1    
   125   52  123 1    
   126   54   53 1    
   127   53  124 1    
   128   56   54 1    
   129   54  125 1    
   130   55   56 1    
   131   55   57 1    
   132   55  126 1    
   133   56  127 1    
   134   57  128 1    
   135   57  129 1    
@<TRIPOS>SUBSTRUCTURE
     1 ****       15 TEMP              0 ****  ****    0 ROOT 
@<TRIPOS>NORMAL
@<TRIPOS>FF_PBC
FORCE_FIELD_SETUP_FEATURE Force Field Setup information
v1.0  0 0.000000 0.000000 0.000000 0.000000 0.000000 0.000000 NONE 0 0 0 0 1 0 0 0 0 0 0 0 0
