@<TRIPOS>MOLECULE
MOL005849
   35    37     1     1     0
SMALL
GASTEIGER


@<TRIPOS>ATOM
      1 C          -2.237754   -1.919190    0.148491 C.ar      1 <1>         0.077223 
      2 C          -2.229889   -0.511748    0.140478 C.ar      1 <1>         0.092361 
      3 C          -0.911625   -2.636731    0.049065 C.2       1 <1>         0.170906 
      4 C          -3.524064   -2.652717    0.254213 C.ar      1 <1>         0.087967 
      5 O          -1.028862    0.195478    0.039491 O.3       1 <1>        -0.335586 
      6 C          -3.503693    0.234390    0.243679 C.ar      1 <1>        -0.001026 
      7 C           0.347845   -1.818568    0.065313 C.3       1 <1>         0.041564 
      8 O          -0.842170   -3.851499   -0.041026 O.2       1 <1>        -0.291783 
      9 C          -4.729635   -1.926748    0.349024 C.ar      1 <1>        -0.001314 
     10 O          -3.522548   -4.050904    0.260183 O.3       1 <1>        -0.358967 
     11 C           0.052456   -0.471330   -0.633453 C.3       1 <1>         0.097162 
     12 C          -4.715266   -0.441423    0.343595 C.ar      1 <1>         0.077503 
     13 C           1.302294    0.416254   -0.582582 C.ar      1 <1>        -0.017820 
     14 O          -5.898996    0.292906    0.435943 O.3       1 <1>        -0.359667 
     15 C           2.181526    0.552803   -1.768716 C.ar      1 <1>        -0.053654 
     16 C           1.631438    1.113073    0.597512 C.ar      1 <1>        -0.053654 
     17 C           3.329196    1.355294   -1.704704 C.ar      1 <1>        -0.031353 
     18 C           2.848859    1.955825    0.662076 C.ar      1 <1>        -0.031353 
     19 C           3.687193    2.075833   -0.460051 C.ar      1 <1>         0.075832 
     20 O           4.853821    2.852726   -0.448500 O.3       1 <1>        -0.347912 
     21 C           5.299587    3.539336    0.733238 C.3       1 <1>         0.043026 
     22 H          -3.488090    1.318088    0.239775 H         1 <1>         0.066932 
     23 H           1.161374   -2.347698   -0.455756 H         1 <1>         0.037400 
     24 H           0.643897   -1.649982    1.111455 H         1 <1>         0.037400 
     25 H          -5.675243   -2.451614    0.425792 H         1 <1>         0.066923 
     26 H          -4.378866   -4.455284    0.340167 H         1 <1>         0.217342 
     27 H          -0.240680   -0.642255   -1.683534 H         1 <1>         0.065571 
     28 H          -6.684514   -0.242092    0.446331 H         1 <1>         0.217316 
     29 H           1.938649    0.033151   -2.690281 H         1 <1>         0.062190 
     30 H           0.992916    1.032210    1.470620 H         1 <1>         0.062190 
     31 H           3.970279    1.456298   -2.573452 H         1 <1>         0.064337 
     32 H           3.068148    2.465212    1.592087 H         1 <1>         0.064337 
     33 H           6.236339    4.060513    0.487274 H         1 <1>         0.052869 
     34 H           5.503014    2.829855    1.550073 H         1 <1>         0.052869 
     35 H           4.562864    4.290639    1.055977 H         1 <1>         0.052869 
@<TRIPOS>BOND
     1    1    2 2    
     2    1    3 1    
     3    1    4 1    
     4    2    5 1    
     5    2    6 1    
     6    3    7 1    
     7    3    8 2    
     8    4    9 2    
     9    4   10 1    
    10    5   11 1    
    11    6   12 2    
    12    6   22 1    
    13    7   11 1    
    14    7   23 1    
    15    7   24 1    
    16    9   12 1    
    17    9   25 1    
    18   10   26 1    
    19   11   13 1    
    20   11   27 1    
    21   12   14 1    
    22   13   15 1    
    23   13   16 2    
    24   14   28 1    
    25   15   17 2    
    26   15   29 1    
    27   16   18 1    
    28   16   30 1    
    29   17   19 1    
    30   17   31 1    
    31   18   19 2    
    32   18   32 1    
    33   19   20 1    
    34   20   21 1    
    35   21   33 1    
    36   21   34 1    
    37   21   35 1    
@<TRIPOS>SUBSTRUCTURE
     1 ****        1 TEMP              0 ****  ****    0 ROOT 
@<TRIPOS>NORMAL
@<TRIPOS>FF_PBC
FORCE_FIELD_SETUP_FEATURE Force Field Setup information
v1.0  0 0.000000 0.000000 0.000000 0.000000 0.000000 0.000000 NONE 0 0 0 0 1 0 0 0 0 0 0 0 0
