@<TRIPOS>MOLECULE
MOL000879
   53    52     1     1     0
SMALL
GASTEIGER


@<TRIPOS>ATOM
      1 C           8.855644    0.430450   -0.000069 C.2       1 <1>         0.261905 
      2 C           7.608405   -0.414689    0.000135 C.3       1 <1>         0.033189 
      3 C           6.311015    0.438407   -0.000073 C.3       1 <1>        -0.044055 
      4 C           5.041132   -0.456206    0.000122 C.3       1 <1>        -0.052596 
      5 C           3.747080    0.402978   -0.000107 C.3       1 <1>        -0.053045 
      6 C           2.473982   -0.487221    0.000100 C.3       1 <1>        -0.053057 
      7 C           1.182423    0.375748   -0.000133 C.3       1 <1>        -0.053057 
      8 C          -0.094453   -0.509127    0.000091 C.3       1 <1>        -0.053057 
      9 C          -1.381241    0.361065   -0.000129 C.3       1 <1>        -0.053057 
     10 C          -2.663649   -0.515351    0.000117 C.3       1 <1>        -0.053057 
     11 C          -3.945057    0.362957   -0.000102 C.3       1 <1>        -0.053057 
     12 C          -5.231015   -0.508180    0.000130 C.3       1 <1>        -0.053057 
     13 C          -6.510915    0.372293   -0.000112 C.3       1 <1>        -0.053065 
     14 C          -7.797205   -0.498376    0.000107 C.3       1 <1>        -0.053306 
     15 C          -9.076689    0.381992   -0.000129 C.3       1 <1>        -0.055911 
     16 C         -10.360090   -0.488859    0.000102 C.3       1 <1>        -0.065276 
     17 O           8.810400    1.651191   -0.000360 O.2       1 <1>        -0.264985 
     18 O          10.003055   -0.264437    0.000098 O.3       1 <1>        -0.318522 
     19 C          11.184124    0.561686   -0.000072 C.3       1 <1>         0.045865 
     20 H           7.631717   -1.057435    0.893965 H         1 <1>         0.036606 
     21 H           7.631725   -1.057860   -0.893397 H         1 <1>         0.036606 
     22 H           6.304570    1.084046   -0.894039 H         1 <1>         0.027004 
     23 H           6.304553    1.084448    0.893584 H         1 <1>         0.027004 
     24 H           5.049736   -1.101916    0.893712 H         1 <1>         0.026540 
     25 H           5.049755   -1.102335   -0.893174 H         1 <1>         0.026540 
     26 H           3.739455    1.048999   -0.893504 H         1 <1>         0.026529 
     27 H           3.739447    1.049435    0.892987 H         1 <1>         0.026529 
     28 H           2.480633   -1.132921    0.893660 H         1 <1>         0.026528 
     29 H           2.480644   -1.133346   -0.893101 H         1 <1>         0.026528 
     30 H           1.176993    1.021713   -0.893535 H         1 <1>         0.026528 
     31 H           1.176984    1.022170    0.893011 H         1 <1>         0.026528 
     32 H          -0.090863   -1.154955    0.893661 H         1 <1>         0.026528 
     33 H          -0.090853   -1.155387   -0.893098 H         1 <1>         0.026528 
     34 H          -1.382889    1.006922   -0.893576 H         1 <1>         0.026528 
     35 H          -1.382891    1.007382    0.893018 H         1 <1>         0.026528 
     36 H          -2.664160   -1.161199    0.893624 H         1 <1>         0.026528 
     37 H          -2.664161   -1.161655   -0.893076 H         1 <1>         0.026528 
     38 H          -3.943494    1.008901   -0.893598 H         1 <1>         0.026528 
     39 H          -3.943490    1.009348    0.893015 H         1 <1>         0.026528 
     40 H          -5.233019   -1.153980    0.893663 H         1 <1>         0.026528 
     41 H          -5.233023   -1.154447   -0.893110 H         1 <1>         0.026528 
     42 H          -6.508834    1.018200   -0.893576 H         1 <1>         0.026528 
     43 H          -6.508831    1.018655    0.893011 H         1 <1>         0.026528 
     44 H          -7.800569   -1.144191    0.893646 H         1 <1>         0.026520 
     45 H          -7.800569   -1.144646   -0.893072 H         1 <1>         0.026520 
     46 H          -9.080221    1.028297   -0.893730 H         1 <1>         0.026265 
     47 H          -9.080222    1.028766    0.893175 H         1 <1>         0.026265 
     48 H         -11.254585    0.154067   -0.000057 H         1 <1>         0.022978 
     49 H         -10.389727   -1.129542    0.895302 H         1 <1>         0.022978 
     50 H         -10.389722   -1.130001   -0.894746 H         1 <1>         0.022978 
     51 H          12.060720   -0.102740    0.000065 H         1 <1>         0.052962 
     52 H          11.229174    1.195905   -0.900064 H         1 <1>         0.052962 
     53 H          11.229168    1.196286    0.899628 H         1 <1>         0.052962 
@<TRIPOS>BOND
     1    1    2 1    
     2    1   17 2    
     3    1   18 1    
     4    2    3 1    
     5    2   20 1    
     6    2   21 1    
     7    3    4 1    
     8    3   22 1    
     9    3   23 1    
    10    4    5 1    
    11    4   24 1    
    12    4   25 1    
    13    5    6 1    
    14    5   26 1    
    15    5   27 1    
    16    6    7 1    
    17    6   28 1    
    18    6   29 1    
    19    7    8 1    
    20    7   30 1    
    21    7   31 1    
    22    8    9 1    
    23    8   32 1    
    24    8   33 1    
    25    9   10 1    
    26    9   34 1    
    27    9   35 1    
    28   10   11 1    
    29   10   36 1    
    30   10   37 1    
    31   11   12 1    
    32   11   38 1    
    33   11   39 1    
    34   12   13 1    
    35   12   40 1    
    36   12   41 1    
    37   13   14 1    
    38   13   42 1    
    39   13   43 1    
    40   14   15 1    
    41   14   44 1    
    42   14   45 1    
    43   15   16 1    
    44   15   46 1    
    45   15   47 1    
    46   16   48 1    
    47   16   49 1    
    48   16   50 1    
    49   18   19 1    
    50   19   51 1    
    51   19   52 1    
    52   19   53 1    
@<TRIPOS>SUBSTRUCTURE
     1 ****        1 TEMP              0 ****  ****    0 ROOT 
@<TRIPOS>NORMAL
@<TRIPOS>FF_PBC
FORCE_FIELD_SETUP_FEATURE Force Field Setup information
v1.0  0 0.000000 0.000000 0.000000 0.000000 0.000000 0.000000 NONE 0 0 0 0 1 0 0 0 0 0 0 0 0
