@<TRIPOS>MOLECULE
MOL002702
   90    89     1     1     0
SMALL
GASTEIGER


@<TRIPOS>ATOM
      1 C          -7.809659   15.922070    0.000119 C.3       1 <1>         0.044206 
      2 C          -6.481793   15.123725   -0.000114 C.3       1 <1>        -0.029718 
      3 C          -6.734519   13.591259    0.000120 C.3       1 <1>        -0.050987 
      4 C          -5.398741   12.798837   -0.000115 C.3       1 <1>        -0.052986 
      5 C          -5.652295   11.266532    0.000118 C.3       1 <1>        -0.053056 
      6 C          -4.317766   10.472021   -0.000117 C.3       1 <1>        -0.053057 
      7 C          -4.574238    8.940227    0.000117 C.3       1 <1>        -0.053057 
      8 C          -3.240916    8.143835   -0.000117 C.3       1 <1>        -0.053057 
      9 C          -3.499459    6.612437    0.000116 C.3       1 <1>        -0.053057 
     10 C          -2.167249    5.814110   -0.000116 C.3       1 <1>        -0.053057 
     11 C          -2.427629    4.282977    0.000117 C.3       1 <1>        -0.053057 
     12 C          -1.096321    3.483243   -0.000115 C.3       1 <1>        -0.053057 
     13 C          -1.357128    1.952164    0.000116 C.3       1 <1>        -0.053057 
     14 C          -0.025354    1.153179   -0.000114 C.3       1 <1>        -0.053057 
     15 C          -0.284741   -0.378108    0.000117 C.3       1 <1>        -0.053057 
     16 C           1.047826   -1.175743   -0.000116 C.3       1 <1>        -0.053057 
     17 C           0.789891   -2.707204    0.000116 C.3       1 <1>        -0.053057 
     18 C           2.123345   -3.503433   -0.000117 C.3       1 <1>        -0.053057 
     19 C           1.866851   -5.035138    0.000116 C.3       1 <1>        -0.053057 
     20 C           3.200451   -5.831156   -0.000119 C.3       1 <1>        -0.053057 
     21 C           2.943212   -7.362703    0.000116 C.3       1 <1>        -0.053057 
     22 C           4.276292   -8.159515   -0.000120 C.3       1 <1>        -0.053057 
     23 C           4.017214   -9.690755    0.000115 C.3       1 <1>        -0.053057 
     24 C           5.349060  -10.489601   -0.000120 C.3       1 <1>        -0.053057 
     25 C           5.087460  -12.020546    0.000116 C.3       1 <1>        -0.053057 
     26 C           6.417883  -12.821756   -0.000118 C.3       1 <1>        -0.053065 
     27 C           6.154521  -14.352349    0.000116 C.3       1 <1>        -0.053306 
     28 C           7.484247  -15.154505   -0.000118 C.3       1 <1>        -0.055911 
     29 C           7.219980  -16.682667    0.000116 C.3       1 <1>        -0.065276 
     30 O          -7.493328   17.325571   -0.000113 O.3       1 <1>        -0.395007 
     31 H          -8.397262   15.663556    0.897854 H         1 <1>         0.055696 
     32 H          -8.397699   15.663356   -0.897273 H         1 <1>         0.055696 
     33 H          -5.900134   15.405617   -0.893131 H         1 <1>         0.028724 
     34 H          -5.899700   15.405816    0.892558 H         1 <1>         0.028724 
     35 H          -7.319801   13.318755    0.893815 H         1 <1>         0.026599 
     36 H          -7.320236   13.318554   -0.893231 H         1 <1>         0.026599 
     37 H          -4.813208   13.071352   -0.893611 H         1 <1>         0.026529 
     38 H          -4.812775   13.071552    0.893033 H         1 <1>         0.026529 
     39 H          -6.237844   10.994171    0.893657 H         1 <1>         0.026528 
     40 H          -6.238274   10.993972   -0.893082 H         1 <1>         0.026528 
     41 H          -3.731800   10.743465   -0.893687 H         1 <1>         0.026528 
     42 H          -3.731368   10.743664    0.893105 H         1 <1>         0.026528 
     43 H          -5.160385    8.669037    0.893611 H         1 <1>         0.026528 
     44 H          -5.160817    8.668839   -0.893038 H         1 <1>         0.026528 
     45 H          -2.654661    8.414525   -0.893665 H         1 <1>         0.026528 
     46 H          -2.654232    8.414722    0.893086 H         1 <1>         0.026528 
     47 H          -4.086039    6.342172    0.893659 H         1 <1>         0.026528 
     48 H          -4.086467    6.341973   -0.893090 H         1 <1>         0.026528 
     49 H          -1.580630    6.084166   -0.893643 H         1 <1>         0.026528 
     50 H          -1.580201    6.084364    0.893066 H         1 <1>         0.026528 
     51 H          -3.014439    4.013327    0.893653 H         1 <1>         0.026528 
     52 H          -3.014867    4.013129   -0.893080 H         1 <1>         0.026528 
     53 H          -0.509464    3.752831   -0.893657 H         1 <1>         0.026528 
     54 H          -0.509036    3.753029    0.893085 H         1 <1>         0.026528 
     55 H          -1.943888    1.682328    0.893647 H         1 <1>         0.026528 
     56 H          -1.944313    1.682132   -0.893075 H         1 <1>         0.026528 
     57 H           0.561342    1.423193   -0.893658 H         1 <1>         0.026528 
     58 H           0.561769    1.423390    0.893090 H         1 <1>         0.026528 
     59 H          -0.871279   -0.648395    0.893674 H         1 <1>         0.026528 
     60 H          -0.871708   -0.648590   -0.893098 H         1 <1>         0.026528 
     61 H           1.634243   -0.905180   -0.893635 H         1 <1>         0.026528 
     62 H           1.634672   -0.904984    0.893062 H         1 <1>         0.026528 
     63 H           0.203576   -2.978021    0.893641 H         1 <1>         0.026528 
     64 H           0.203145   -2.978219   -0.893065 H         1 <1>         0.026528 
     65 H           2.709492   -3.232296   -0.893650 H         1 <1>         0.026528 
     66 H           2.709919   -3.232099    0.893078 H         1 <1>         0.026528 
     67 H           1.280726   -5.306293    0.893663 H         1 <1>         0.026528 
     68 H           1.280294   -5.306493   -0.893087 H         1 <1>         0.026528 
     69 H           3.786696   -5.560243   -0.893662 H         1 <1>         0.026528 
     70 H           3.787128   -5.560042    0.893082 H         1 <1>         0.026528 
     71 H           2.356970   -7.633623    0.893632 H         1 <1>         0.026528 
     72 H           2.356537   -7.633823   -0.893054 H         1 <1>         0.026528 
     73 H           4.862780   -7.889085   -0.893697 H         1 <1>         0.026528 
     74 H           4.863215   -7.888884    0.893113 H         1 <1>         0.026528 
     75 H           3.430586   -9.960743    0.893646 H         1 <1>         0.026528 
     76 H           3.430151   -9.960941   -0.893069 H         1 <1>         0.026528 
     77 H           5.935903  -10.219908   -0.893664 H         1 <1>         0.026528 
     78 H           5.936339  -10.219709    0.893078 H         1 <1>         0.026528 
     79 H           4.500350  -12.289648    0.893655 H         1 <1>         0.026528 
     80 H           4.499914  -12.289848   -0.893077 H         1 <1>         0.026528 
     81 H           7.005018  -12.552942   -0.893670 H         1 <1>         0.026528 
     82 H           7.005454  -12.552742    0.893087 H         1 <1>         0.026528 
     83 H           5.567474  -14.621572    0.893615 H         1 <1>         0.026520 
     84 H           5.567040  -14.621771   -0.893038 H         1 <1>         0.026520 
     85 H           8.074411  -14.891003   -0.893831 H         1 <1>         0.026265 
     86 H           8.074846  -14.890803    0.893248 H         1 <1>         0.026265 
     87 H           8.174488  -17.232455   -0.000056 H         1 <1>         0.022978 
     88 H           6.648471  -16.973475    0.895324 H         1 <1>         0.022978 
     89 H           6.648036  -16.973675   -0.894748 H         1 <1>         0.022978 
     90 H          -8.265650   17.883410    0.000011 H         1 <1>         0.209395 
@<TRIPOS>BOND
     1    1    2 1    
     2    1   30 1    
     3    1   31 1    
     4    1   32 1    
     5    2    3 1    
     6    2   33 1    
     7    2   34 1    
     8    3    4 1    
     9    3   35 1    
    10    3   36 1    
    11    4    5 1    
    12    4   37 1    
    13    4   38 1    
    14    5    6 1    
    15    5   39 1    
    16    5   40 1    
    17    6    7 1    
    18    6   41 1    
    19    6   42 1    
    20    7    8 1    
    21    7   43 1    
    22    7   44 1    
    23    8    9 1    
    24    8   45 1    
    25    8   46 1    
    26    9   10 1    
    27    9   47 1    
    28    9   48 1    
    29   10   11 1    
    30   10   49 1    
    31   10   50 1    
    32   11   12 1    
    33   11   51 1    
    34   11   52 1    
    35   12   13 1    
    36   12   53 1    
    37   12   54 1    
    38   13   14 1    
    39   13   55 1    
    40   13   56 1    
    41   14   15 1    
    42   14   57 1    
    43   14   58 1    
    44   15   16 1    
    45   15   59 1    
    46   15   60 1    
    47   16   17 1    
    48   16   61 1    
    49   16   62 1    
    50   17   18 1    
    51   17   63 1    
    52   17   64 1    
    53   18   19 1    
    54   18   65 1    
    55   18   66 1    
    56   19   20 1    
    57   19   67 1    
    58   19   68 1    
    59   20   21 1    
    60   20   69 1    
    61   20   70 1    
    62   21   22 1    
    63   21   71 1    
    64   21   72 1    
    65   22   23 1    
    66   22   73 1    
    67   22   74 1    
    68   23   24 1    
    69   23   75 1    
    70   23   76 1    
    71   24   25 1    
    72   24   77 1    
    73   24   78 1    
    74   25   26 1    
    75   25   79 1    
    76   25   80 1    
    77   26   27 1    
    78   26   81 1    
    79   26   82 1    
    80   27   28 1    
    81   27   83 1    
    82   27   84 1    
    83   28   29 1    
    84   28   85 1    
    85   28   86 1    
    86   29   87 1    
    87   29   88 1    
    88   29   89 1    
    89   30   90 1    
@<TRIPOS>SUBSTRUCTURE
     1 ****        1 TEMP              0 ****  ****    0 ROOT 
@<TRIPOS>NORMAL
@<TRIPOS>FF_PBC
FORCE_FIELD_SETUP_FEATURE Force Field Setup information
v1.0  0 0.000000 0.000000 0.000000 0.000000 0.000000 0.000000 NONE 0 0 0 0 1 0 0 0 0 0 0 0 0
