@<TRIPOS>MOLECULE
MOL000429
   17    16     1     1     0
SMALL
GASTEIGER


@<TRIPOS>ATOM
      1 C           1.521941    0.536637   -0.023363 C.2       1 <1>         0.277014 
      2 N           1.128801   -1.858811    0.330576 N.3       1 <1>        -0.318937 
      3 C           0.506273   -0.582018   -0.094112 C.3       1 <1>         0.099664 
      4 C          -0.723310   -0.289526    0.807152 C.3       1 <1>         0.048154 
      5 C          -1.464794    0.954324    0.379268 C.2       1 <1>         0.212465 
      6 O          -1.445927    1.938978    1.098815 O.2       1 <1>        -0.275964 
      7 N          -2.140464    0.952067   -0.788043 N.am      1 <1>        -0.329268 
      8 O           1.400816    1.493197    0.724489 O.2       1 <1>        -0.263425 
      9 O           2.569870    0.402919   -0.839977 O.3       1 <1>        -0.330088 
     10 H           0.469200   -2.696641    0.142280 H         1 <1>         0.118932 
     11 H           2.065380   -2.017489   -0.189451 H         1 <1>         0.118932 
     12 H           0.187047   -0.661782   -1.146906 H         1 <1>         0.056691 
     13 H          -1.429226   -1.133234    0.762758 H         1 <1>         0.037855 
     14 H          -0.385305   -0.188683    1.851216 H         1 <1>         0.037855 
     15 H          -2.629792    1.780719   -1.062141 H         1 <1>         0.144930 
     16 H          -2.174902    0.146468   -1.378923 H         1 <1>         0.144930 
     17 H           3.179664    1.127455   -0.751751 H         1 <1>         0.220259 
@<TRIPOS>BOND
     1    1    3 1    
     2    1    8 2    
     3    1    9 1    
     4    3    2 1    
     5    2   10 1    
     6    2   11 1    
     7    3    4 1    
     8    3   12 1    
     9    4    5 1    
    10    4   13 1    
    11    4   14 1    
    12    5    6 2    
    13    5    7 1    
    14    7   15 1    
    15    7   16 1    
    16    9   17 1    
@<TRIPOS>SUBSTRUCTURE
     1 ****        1 TEMP              0 ****  ****    0 ROOT 
@<TRIPOS>NORMAL
@<TRIPOS>FF_PBC
FORCE_FIELD_SETUP_FEATURE Force Field Setup information
v1.0  0 0.000000 0.000000 0.000000 0.000000 0.000000 0.000000 NONE 0 0 0 0 1 0 0 0 0 0 0 0 0
