@<TRIPOS>MOLECULE
MOL000885
   38    37     1     1     0
SMALL
GASTEIGER


@<TRIPOS>ATOM
      1 C           7.052651    0.445439    0.000106 C.3       1 <1>        -0.065276 
      2 C           5.774408   -0.433022   -0.000120 C.3       1 <1>        -0.055911 
      3 C           4.489913    0.440003    0.000108 C.3       1 <1>        -0.053306 
      4 C           3.208121   -0.437455   -0.000109 C.3       1 <1>        -0.053065 
      5 C           1.924457    0.437299    0.000111 C.3       1 <1>        -0.053057 
      6 C           0.641359   -0.438108   -0.000112 C.3       1 <1>        -0.053057 
      7 C          -0.641359    0.438108    0.000112 C.3       1 <1>        -0.053057 
      8 C          -1.924457   -0.437299   -0.000111 C.3       1 <1>        -0.053057 
      9 C          -3.208121    0.437455    0.000109 C.3       1 <1>        -0.053065 
     10 C          -4.489913   -0.440003   -0.000108 C.3       1 <1>        -0.053306 
     11 C          -5.774408    0.433022    0.000120 C.3       1 <1>        -0.055911 
     12 C          -7.052651   -0.445439   -0.000106 C.3       1 <1>        -0.065276 
     13 H           7.950948   -0.192176   -0.000055 H         1 <1>         0.022978 
     14 H           7.078518    1.086290    0.895286 H         1 <1>         0.022978 
     15 H           7.078515    1.086751   -0.894732 H         1 <1>         0.022978 
     16 H           5.781629   -1.079336   -0.893744 H         1 <1>         0.026265 
     17 H           5.781632   -1.079803    0.893187 H         1 <1>         0.026265 
     18 H           4.489693    1.085866    0.893638 H         1 <1>         0.026520 
     19 H           4.489692    1.086330   -0.893079 H         1 <1>         0.026520 
     20 H           3.208981   -1.083282   -0.893651 H         1 <1>         0.026528 
     21 H           3.208981   -1.083746    0.893090 H         1 <1>         0.026528 
     22 H           1.924276    1.083081    0.893646 H         1 <1>         0.026528 
     23 H           1.924274    1.083547   -0.893089 H         1 <1>         0.026528 
     24 H           0.641267   -1.083957   -0.893633 H         1 <1>         0.026528 
     25 H           0.641266   -1.084421    0.893075 H         1 <1>         0.026528 
     26 H          -0.641267    1.083957    0.893633 H         1 <1>         0.026528 
     27 H          -0.641266    1.084421   -0.893075 H         1 <1>         0.026528 
     28 H          -1.924276   -1.083081   -0.893646 H         1 <1>         0.026528 
     29 H          -1.924274   -1.083547    0.893089 H         1 <1>         0.026528 
     30 H          -3.208981    1.083282    0.893651 H         1 <1>         0.026528 
     31 H          -3.208981    1.083746   -0.893090 H         1 <1>         0.026528 
     32 H          -4.489693   -1.085866   -0.893638 H         1 <1>         0.026520 
     33 H          -4.489692   -1.086330    0.893079 H         1 <1>         0.026520 
     34 H          -5.781629    1.079336    0.893744 H         1 <1>         0.026265 
     35 H          -5.781632    1.079803   -0.893187 H         1 <1>         0.026265 
     36 H          -7.950948    0.192176    0.000055 H         1 <1>         0.022978 
     37 H          -7.078518   -1.086290   -0.895286 H         1 <1>         0.022978 
     38 H          -7.078515   -1.086751    0.894732 H         1 <1>         0.022978 
@<TRIPOS>BOND
     1    1    2 1    
     2    1   13 1    
     3    1   14 1    
     4    1   15 1    
     5    2    3 1    
     6    2   16 1    
     7    2   17 1    
     8    3    4 1    
     9    3   18 1    
    10    3   19 1    
    11    4    5 1    
    12    4   20 1    
    13    4   21 1    
    14    5    6 1    
    15    5   22 1    
    16    5   23 1    
    17    6    7 1    
    18    6   24 1    
    19    6   25 1    
    20    7    8 1    
    21    7   26 1    
    22    7   27 1    
    23    8    9 1    
    24    8   28 1    
    25    8   29 1    
    26    9   10 1    
    27    9   30 1    
    28    9   31 1    
    29   10   11 1    
    30   10   32 1    
    31   10   33 1    
    32   11   12 1    
    33   11   34 1    
    34   11   35 1    
    35   12   36 1    
    36   12   37 1    
    37   12   38 1    
@<TRIPOS>SUBSTRUCTURE
     1 ****        1 TEMP              0 ****  ****    0 ROOT 
@<TRIPOS>NORMAL
@<TRIPOS>FF_PBC
FORCE_FIELD_SETUP_FEATURE Force Field Setup information
v1.0  0 0.000000 0.000000 0.000000 0.000000 0.000000 0.000000 NONE 0 0 0 0 1 0 0 0 0 0 0 0 0
