@<TRIPOS>MOLECULE
MOL002913
   32    34     1     1     0
SMALL
GASTEIGER


@<TRIPOS>ATOM
      1 O          -2.577087    4.200773    1.496471 O.3       1 <1>        -0.357155 
      2 O          -0.821042   -0.121520    0.158337 O.3       1 <1>        -0.335583 
      3 O          -0.013445    5.241060    1.676746 O.3       1 <1>        -0.355379 
      4 O           2.259682    3.587134    1.103843 O.3       1 <1>        -0.356602 
      5 O           3.048874    1.187987    0.322343 O.2       1 <1>        -0.291782 
      6 C          -1.464745    3.403044    1.215054 C.ar      1 <1>         0.107283 
      7 C           0.199154   -0.710559   -0.668047 C.3       1 <1>         0.097160 
      8 C           1.572248   -0.647309    0.042128 C.3       1 <1>         0.041565 
      9 C          -0.612026    1.205341    0.539692 C.ar      1 <1>         0.092530 
     10 C           0.765241    1.744479    0.642162 C.ar      1 <1>         0.079761 
     11 C          -1.666422    1.991220    0.815031 C.ar      1 <1>         0.001511 
     12 C           1.894398    0.790864    0.331372 C.2       1 <1>         0.170991 
     13 C          -0.196670    3.907131    1.302351 C.ar      1 <1>         0.133286 
     14 C           0.973106    3.040992    1.002843 C.ar      1 <1>         0.117882 
     15 C          -0.173042   -2.172547   -0.942088 C.ar      1 <1>        -0.017977 
     16 C          -0.019731   -2.749437   -2.301175 C.ar      1 <1>        -0.056091 
     17 C          -0.665524   -2.980653    0.098945 C.ar      1 <1>        -0.056091 
     18 C          -0.365280   -4.088025   -2.542988 C.ar      1 <1>        -0.061420 
     19 C          -1.027092   -4.394830   -0.157862 C.ar      1 <1>        -0.061420 
     20 C          -0.882194   -4.932839   -1.440632 C.ar      1 <1>        -0.061740 
     21 H          -2.331196    5.089318    1.737947 H         1 <1>         0.217423 
     22 H           0.910428    5.472116    1.696379 H         1 <1>         0.217502 
     23 H           2.967460    2.986665    0.883839 H         1 <1>         0.217446 
     24 H           0.240959   -0.156956   -1.621361 H         1 <1>         0.065571 
     25 H           2.351874   -1.092603   -0.596094 H         1 <1>         0.037400 
     26 H           1.533100   -1.196241    0.994999 H         1 <1>         0.037400 
     27 H          -2.672026    1.592917    0.742393 H         1 <1>         0.067016 
     28 H           0.360026   -2.138534   -3.113508 H         1 <1>         0.062111 
     29 H          -0.783930   -2.572243    1.097214 H         1 <1>         0.062111 
     30 H          -0.254313   -4.508244   -3.537482 H         1 <1>         0.061767 
     31 H          -1.404038   -5.010739    0.652287 H         1 <1>         0.061767 
     32 H          -1.146847   -5.967961   -1.631438 H         1 <1>         0.061758 
@<TRIPOS>BOND
     1    6    1 1    
     2    1   21 1    
     3    2    7 1    
     4    9    2 1    
     5   13    3 1    
     6    3   22 1    
     7   14    4 1    
     8    4   23 1    
     9   12    5 2    
    10   11    6 1    
    11    6   13 2    
    12    8    7 1    
    13    7   15 1    
    14    7   24 1    
    15   12    8 1    
    16    8   25 1    
    17    8   26 1    
    18   10    9 1    
    19    9   11 2    
    20   10   12 1    
    21   10   14 2    
    22   11   27 1    
    23   13   14 1    
    24   15   16 1    
    25   15   17 2    
    26   16   18 2    
    27   16   28 1    
    28   17   19 1    
    29   17   29 1    
    30   18   20 1    
    31   18   30 1    
    32   19   20 2    
    33   19   31 1    
    34   20   32 1    
@<TRIPOS>SUBSTRUCTURE
     1 ****        2 TEMP              0 ****  ****    0 ROOT 
@<TRIPOS>NORMAL
@<TRIPOS>FF_PBC
FORCE_FIELD_SETUP_FEATURE Force Field Setup information
v1.0  0 0.000000 0.000000 0.000000 0.000000 0.000000 0.000000 NONE 0 0 0 0 1 0 0 0 0 0 0 0 0
