@<TRIPOS>MOLECULE
MOL004728
   39    41     1     1     0
SMALL
GASTEIGER


@<TRIPOS>ATOM
      1 C           0.051730    0.397081    0.362149 C.3       1 <1>        -0.000058 
      2 C           0.824004   -0.944597    0.583683 C.3       1 <1>        -0.022472 
      3 C          -0.822469    0.162177   -0.899820 C.3       1 <1>        -0.028352 
      4 C           1.229752   -1.212121   -0.898485 C.3       1 <1>        -0.034505 
      5 C          -0.086451   -0.960245   -1.692397 C.3       1 <1>        -0.045786 
      6 C          -0.993681    0.824272    1.427231 C.3       1 <1>        -0.042662 
      7 C          -2.285371   -0.143339   -0.433870 C.3       1 <1>        -0.040199 
      8 C           1.133980    1.440574    0.081302 C.2       1 <1>        -0.069651 
      9 C          -2.308232    0.072541    1.106145 C.3       1 <1>        -0.049364 
     10 C           2.337590   -0.231755   -1.384360 C.3       1 <1>        -0.045986 
     11 C           1.920564    1.254108   -1.203438 C.3       1 <1>        -0.031174 
     12 C           2.025188   -0.807608    1.578414 C.3       1 <1>        -0.058753 
     13 C          -0.015267   -2.150301    1.116692 C.3       1 <1>        -0.058753 
     14 C          -3.321803    0.775312   -1.143221 C.3       1 <1>        -0.062136 
     15 C           1.424456    2.455631    0.909720 C.2       1 <1>        -0.098892 
     16 H          -0.859078    1.095561   -1.483681 H         1 <1>         0.031202 
     17 H           1.597809   -2.242465   -1.044667 H         1 <1>         0.030639 
     18 H           0.112557   -0.661588   -2.734273 H         1 <1>         0.027112 
     19 H          -0.674733   -1.887999   -1.744563 H         1 <1>         0.027112 
     20 H          -1.223741    1.892237    1.277032 H         1 <1>         0.027400 
     21 H          -0.646545    0.673043    2.461212 H         1 <1>         0.027400 
     22 H          -2.594716   -1.176043   -0.665785 H         1 <1>         0.030106 
     23 H          -2.351011   -0.886155    1.641223 H         1 <1>         0.026821 
     24 H          -3.188324    0.645391    1.443731 H         1 <1>         0.026821 
     25 H           2.565843   -0.419714   -2.447004 H         1 <1>         0.027113 
     26 H           3.267454   -0.437378   -0.831535 H         1 <1>         0.027113 
     27 H           1.307786    1.578155   -2.057176 H         1 <1>         0.031017 
     28 H           2.831922    1.873770   -1.227377 H         1 <1>         0.031017 
     29 H           2.617339   -1.735418    1.578355 H         1 <1>         0.023534 
     30 H           2.717904    0.017118    1.367565 H         1 <1>         0.023534 
     31 H           1.645464   -0.640834    2.597642 H         1 <1>         0.023534 
     32 H          -0.899115   -2.385538    0.515618 H         1 <1>         0.023534 
     33 H           0.606665   -3.058599    1.121559 H         1 <1>         0.023534 
     34 H          -0.336005   -1.973762    2.153744 H         1 <1>         0.023534 
     35 H          -3.131029    1.833786   -0.906259 H         1 <1>         0.023250 
     36 H          -3.263520    0.640346   -2.234837 H         1 <1>         0.023250 
     37 H          -4.344125    0.525422   -0.817804 H         1 <1>         0.023250 
     38 H           0.924434    2.620644    1.861505 H         1 <1>         0.053458 
     39 H           2.203671    3.176492    0.665027 H         1 <1>         0.053458 
@<TRIPOS>BOND
     1    1    2 1    
     2    1    3 1    
     3    1    6 1    
     4    1    8 1    
     5    2    4 1    
     6    2   12 1    
     7    2   13 1    
     8    3    5 1    
     9    3    7 1    
    10    3   16 1    
    11    4    5 1    
    12    4   10 1    
    13    4   17 1    
    14    5   18 1    
    15    5   19 1    
    16    6    9 1    
    17    6   20 1    
    18    6   21 1    
    19    7    9 1    
    20    7   14 1    
    21    7   22 1    
    22    8   11 1    
    23    8   15 2    
    24    9   23 1    
    25    9   24 1    
    26   10   11 1    
    27   10   25 1    
    28   10   26 1    
    29   11   27 1    
    30   11   28 1    
    31   12   29 1    
    32   12   30 1    
    33   12   31 1    
    34   13   32 1    
    35   13   33 1    
    36   13   34 1    
    37   14   35 1    
    38   14   36 1    
    39   14   37 1    
    40   15   38 1    
    41   15   39 1    
@<TRIPOS>SUBSTRUCTURE
     1 ****        1 TEMP              0 ****  ****    0 ROOT 
@<TRIPOS>NORMAL
@<TRIPOS>FF_PBC
FORCE_FIELD_SETUP_FEATURE Force Field Setup information
v1.0  0 0.000000 0.000000 0.000000 0.000000 0.000000 0.000000 NONE 0 0 0 0 1 0 0 0 0 0 0 0 0
