@<TRIPOS>MOLECULE
MOL004887
   79    83     1     1     0
SMALL
GASTEIGER


@<TRIPOS>ATOM
      1 C          -4.401471   -1.115408    3.871822 C.3       1 <1>        -0.037508 
      2 C          -3.022878   -1.820345    3.961278 C.3       1 <1>        -0.042931 
      3 C          -2.286396   -1.997759    2.585819 C.3       1 <1>        -0.010415 
      4 C          -2.389166   -0.716843    1.751020 C.2       1 <1>        -0.058942 
      5 C          -3.804079   -0.153997    1.648158 C.3       1 <1>        -0.016210 
      6 C          -4.313502    0.209964    3.065118 C.3       1 <1>         0.056847 
      7 C          -0.813307   -2.392470    2.932885 C.3       1 <1>        -0.043091 
      8 C           0.129375   -2.179982    1.728130 C.3       1 <1>        -0.042314 
      9 C           0.078831   -0.717549    1.172550 C.3       1 <1>        -0.001120 
     10 C          -1.325731   -0.128403    1.153583 C.2       1 <1>        -0.041412 
     11 C           0.622822   -0.656633   -0.329782 C.3       1 <1>        -0.015931 
     12 C           0.812948    0.848660   -0.736133 C.3       1 <1>        -0.010743 
     13 C          -0.468139    1.598825   -0.442547 C.2       1 <1>        -0.079573 
     14 C          -1.399942    1.161466    0.410933 C.2       1 <1>        -0.061683 
     15 C           2.010768   -1.359802   -0.480449 C.3       1 <1>        -0.045985 
     16 C           2.710771   -1.094069   -1.846439 C.3       1 <1>        -0.048590 
     17 C           2.927918    0.431067   -2.090605 C.3       1 <1>        -0.027564 
     18 C           1.555773    1.209007   -2.088282 C.3       1 <1>        -0.021809 
     19 C           3.959956    0.813783   -3.221622 C.3       1 <1>        -0.005580 
     20 C           4.201472    2.358294   -3.174083 C.3       1 <1>         0.060638 
     21 C           2.886468    3.173247   -3.223242 C.3       1 <1>        -0.025822 
     22 C           1.912355    2.741323   -2.093326 C.3       1 <1>        -0.044448 
     23 O           5.046674    2.761901   -4.268735 O.3       1 <1>        -0.391248 
     24 C           0.838702    0.202911    2.203690 C.3       1 <1>        -0.055018 
     25 C          -3.354823    1.253700    3.721300 C.3       1 <1>        -0.050202 
     26 C           0.619703    0.933956   -3.315486 C.3       1 <1>        -0.058736 
     27 C           5.352254    0.143871   -2.961880 C.3       1 <1>        -0.057190 
     28 C           3.535250    0.367431   -4.655795 C.3       1 <1>        -0.057190 
     29 C          -2.939307   -3.176837    1.788045 C.3       1 <1>        -0.055823 
     30 C          -0.400026   -1.390210   -1.276814 C.3       1 <1>        -0.058208 
     31 C          -5.707469    0.813418    2.994994 C.2       1 <1>         0.265846 
     32 O          -5.952063    1.943526    3.383682 O.2       1 <1>        -0.264556 
     33 O          -6.657221    0.029989    2.481874 O.3       1 <1>        -0.330850 
     34 H          -4.784788   -0.906667    4.884093 H         1 <1>         0.027568 
     35 H          -5.115179   -1.802858    3.393799 H         1 <1>         0.027568 
     36 H          -3.151884   -2.802236    4.446481 H         1 <1>         0.027386 
     37 H          -2.422130   -1.210096    4.652668 H         1 <1>         0.027386 
     38 H          -3.950082    0.722881    1.015860 H         1 <1>         0.032046 
     39 H          -4.469498   -0.900982    1.198348 H         1 <1>         0.032046 
     40 H          -0.761769   -3.445667    3.251411 H         1 <1>         0.027384 
     41 H          -0.426668   -1.829454    3.788555 H         1 <1>         0.027384 
     42 H           1.159860   -2.426986    2.030528 H         1 <1>         0.027410 
     43 H          -0.164481   -2.934076    0.995696 H         1 <1>         0.027410 
     44 H           1.521416    1.249915   -0.005248 H         1 <1>         0.035395 
     45 H          -0.647395    2.559363   -0.922201 H         1 <1>         0.057525 
     46 H          -2.221063    1.865599    0.535702 H         1 <1>         0.061744 
     47 H           1.898945   -2.449540   -0.356538 H         1 <1>         0.027105 
     48 H           2.694929   -1.014222    0.308569 H         1 <1>         0.027105 
     49 H           3.674514   -1.617108   -1.778658 H         1 <1>         0.026846 
     50 H           2.159375   -1.565212   -2.667430 H         1 <1>         0.026846 
     51 H           3.454836    0.761697   -1.180884 H         1 <1>         0.031219 
     52 H           4.712403    2.601881   -2.225489 H         1 <1>         0.059852 
     53 H           2.441693    3.096674   -4.223237 H         1 <1>         0.029038 
     54 H           3.126595    4.240120   -3.078489 H         1 <1>         0.029038 
     55 H           1.013007    3.365294   -2.209623 H         1 <1>         0.027158 
     56 H           2.391570    3.032134   -1.143544 H         1 <1>         0.027158 
     57 H           5.254790    3.690646   -4.267135 H         1 <1>         0.209800 
     58 H           1.916495   -0.009409    2.226730 H         1 <1>         0.023838 
     59 H           0.713706    1.280224    2.028572 H         1 <1>         0.023838 
     60 H           0.467078    0.080745    3.226341 H         1 <1>         0.023838 
     61 H          -3.368754    2.192089    3.144381 H         1 <1>         0.023996 
     62 H          -3.682402    1.474100    4.749911 H         1 <1>         0.023996 
     63 H          -2.307712    0.921591    3.760546 H         1 <1>         0.023996 
     64 H          -0.434452    0.908344   -3.003103 H         1 <1>         0.023534 
     65 H           0.652923    1.714881   -4.083931 H         1 <1>         0.023534 
     66 H           0.863188   -0.004585   -3.827834 H         1 <1>         0.023534 
     67 H           6.125322    0.581931   -3.610036 H         1 <1>         0.023587 
     68 H           5.343109   -0.932540   -3.178407 H         1 <1>         0.023587 
     69 H           5.682656    0.283782   -1.923452 H         1 <1>         0.023587 
     70 H           4.360672    0.539511   -5.364849 H         1 <1>         0.023587 
     71 H           3.308018   -0.708950   -4.676023 H         1 <1>         0.023587 
     72 H           2.670813    0.911837   -5.051953 H         1 <1>         0.023587 
     73 H          -4.022034   -3.069180    1.649078 H         1 <1>         0.023812 
     74 H          -2.492745   -3.276484    0.789977 H         1 <1>         0.023812 
     75 H          -2.795979   -4.131225    2.313053 H         1 <1>         0.023812 
     76 H          -0.130626   -1.318935   -2.327474 H         1 <1>         0.023552 
     77 H          -0.468032   -2.470370   -1.099524 H         1 <1>         0.023552 
     78 H          -1.418513   -0.988531   -1.195616 H         1 <1>         0.023552 
     79 H          -7.508222    0.456326    2.492241 H         1 <1>         0.220226 
@<TRIPOS>BOND
     1    1    2 1    
     2    1    6 1    
     3    1   34 1    
     4    1   35 1    
     5    2    3 1    
     6    2   36 1    
     7    2   37 1    
     8    3    4 1    
     9    3    7 1    
    10    3   29 1    
    11    4    5 1    
    12    4   10 2    
    13    5    6 1    
    14    5   38 1    
    15    5   39 1    
    16    6   25 1    
    17    6   31 1    
    18    7    8 1    
    19    7   40 1    
    20    7   41 1    
    21    8    9 1    
    22    8   42 1    
    23    8   43 1    
    24    9   10 1    
    25    9   11 1    
    26    9   24 1    
    27   10   14 1    
    28   11   12 1    
    29   11   15 1    
    30   11   30 1    
    31   12   13 1    
    32   12   18 1    
    33   12   44 1    
    34   13   14 2    
    35   13   45 1    
    36   14   46 1    
    37   15   16 1    
    38   15   47 1    
    39   15   48 1    
    40   16   17 1    
    41   16   49 1    
    42   16   50 1    
    43   17   18 1    
    44   17   19 1    
    45   17   51 1    
    46   18   22 1    
    47   18   26 1    
    48   19   20 1    
    49   19   27 1    
    50   19   28 1    
    51   20   21 1    
    52   20   23 1    
    53   20   52 1    
    54   21   22 1    
    55   21   53 1    
    56   21   54 1    
    57   22   55 1    
    58   22   56 1    
    59   23   57 1    
    60   24   58 1    
    61   24   59 1    
    62   24   60 1    
    63   25   61 1    
    64   25   62 1    
    65   25   63 1    
    66   26   64 1    
    67   26   65 1    
    68   26   66 1    
    69   27   67 1    
    70   27   68 1    
    71   27   69 1    
    72   28   70 1    
    73   28   71 1    
    74   28   72 1    
    75   29   73 1    
    76   29   74 1    
    77   29   75 1    
    78   30   76 1    
    79   30   77 1    
    80   30   78 1    
    81   31   32 2    
    82   31   33 1    
    83   33   79 1    
@<TRIPOS>SUBSTRUCTURE
     1 ****        1 TEMP              0 ****  ****    0 ROOT 
@<TRIPOS>NORMAL
@<TRIPOS>FF_PBC
FORCE_FIELD_SETUP_FEATURE Force Field Setup information
v1.0  0 0.000000 0.000000 0.000000 0.000000 0.000000 0.000000 NONE 0 0 0 0 1 0 0 0 0 0 0 0 0
