@<TRIPOS>MOLECULE
MOL012960
  178   188     1     1     0
SMALL
GASTEIGER


@<TRIPOS>ATOM
      1 O           0.987437    7.573130    1.449261 O.3       1 <1>        -0.347589 
      2 O           0.927970    9.257320   -0.172663 O.3       1 <1>        -0.340889 
      3 O          -1.344567    8.551788    2.558259 O.3       1 <1>        -0.388286 
      4 O          -2.969464   -0.647179   -0.023592 O.3       1 <1>        -0.344893 
      5 O          -4.644507   -2.063108    0.760476 O.3       1 <1>        -0.346051 
      6 O          -5.365736    0.776574    1.187087 O.3       1 <1>        -0.337751 
      7 O          -6.760263   -1.077937   -1.696639 O.3       1 <1>        -0.340043 
      8 O          -8.372416   -2.130799    0.760552 O.3       1 <1>        -0.386848 
      9 O          -5.268454    3.057329    1.839309 O.3       1 <1>        -0.343067 
     10 O          -7.839355   -2.841721   -2.781949 O.3       1 <1>        -0.340500 
     11 O          -8.040368    3.094897    2.363120 O.3       1 <1>        -0.384104 
     12 O          -9.897912   -0.707492   -3.615837 O.3       1 <1>        -0.337771 
     13 O          -7.919853    1.255618    4.553347 O.3       1 <1>        -0.386402 
     14 O          -5.289926    2.036029    5.454961 O.3       1 <1>        -0.386579 
     15 O          -6.362448    0.069218   -4.442217 O.3       1 <1>        -0.386391 
     16 O          -8.713002   -2.592859   -5.578129 O.3       1 <1>        -0.386488 
     17 O          -4.996110   -3.446287   -2.401911 O.3       1 <1>        -0.346050 
     18 O         -11.627821    0.874674   -3.611486 O.3       1 <1>        -0.346058 
     19 O         -11.740686    0.641766   -6.587474 O.3       1 <1>        -0.384104 
     20 O         -11.623672   -2.489978   -4.555557 O.3       1 <1>        -0.386412 
     21 O          -3.211019   -4.506890   -3.379765 O.3       1 <1>        -0.340532 
     22 O         -14.051267    0.181894   -5.239267 O.3       1 <1>        -0.386859 
     23 O          -3.182442   -4.448035   -0.412111 O.3       1 <1>        -0.384104 
     24 O          -4.110814   -7.654551   -1.990682 O.3       1 <1>        -0.386401 
     25 O          -1.060478   -5.531619   -1.649404 O.3       1 <1>        -0.386488 
     26 O          -2.199525   -7.560689   -5.272935 O.3       1 <1>        -0.392366 
     27 C           0.037661    5.711373    0.326502 C.3       1 <1>         0.008081 
     28 C          -0.100641    4.121793    0.219483 C.3       1 <1>        -0.020557 
     29 C          -1.364054    6.399099    0.284407 C.3       1 <1>        -0.022254 
     30 C          -1.232388    3.694939   -0.815604 C.3       1 <1>        -0.029356 
     31 C          -1.041401    7.901833    0.151414 C.3       1 <1>         0.045172 
     32 C           0.494886    7.915383    0.157126 C.3       1 <1>         0.176956 
     33 C           0.856861    6.622810   -0.641028 C.3       1 <1>         0.010330 
     34 C          -1.587481    2.159756   -0.793586 C.3       1 <1>        -0.025246 
     35 C           0.739456    6.185826    1.642715 C.3       1 <1>         0.057503 
     36 C          -2.226111    6.027172   -0.943460 C.3       1 <1>        -0.048816 
     37 C           1.180377    3.366300   -0.277078 C.3       1 <1>        -0.046476 
     38 C          -0.293526    1.277954   -0.952275 C.3       1 <1>        -0.027836 
     39 C          -2.549296    4.540212   -0.854277 C.3       1 <1>        -0.048911 
     40 C          -1.691891    8.844104    1.195430 C.3       1 <1>         0.073921 
     41 C           1.003767    1.803997   -0.238065 C.3       1 <1>        -0.048617 
     42 C          -0.280585    3.618822    1.703543 C.3       1 <1>        -0.058701 
     43 C          -0.573431   -0.288886   -0.847169 C.3       1 <1>        -0.005230 
     44 C          -2.477804    1.791584   -2.046287 C.3       1 <1>        -0.044721 
     45 C          -2.432588    1.905324    0.503821 C.3       1 <1>        -0.059019 
     46 C          -1.105007   10.242312    0.893418 C.3       1 <1>         0.006275 
     47 C          -2.082590   -0.638268   -1.186751 C.3       1 <1>         0.067174 
     48 C          -2.560247    0.264448   -2.361527 C.3       1 <1>        -0.025470 
     49 C           0.445763   10.197572    0.833593 C.3       1 <1>         0.082911 
     50 C          -3.241397    8.875452    1.048695 C.3       1 <1>        -0.035536 
     51 C           0.366811   -1.037482   -1.859745 C.3       1 <1>        -0.057181 
     52 C          -0.188200   -0.928645    0.531922 C.3       1 <1>        -0.057181 
     53 C           0.861430   11.625848    0.590658 C.2       1 <1>        -0.056719 
     54 C          -4.362901   -1.037961   -0.220907 C.3       1 <1>         0.188196 
     55 C           1.163492   12.499638    1.569060 C.2       1 <1>        -0.077208 
     56 C          -5.428498    0.108832   -0.110640 C.3       1 <1>         0.140966 
     57 C           1.149405   12.172908    3.052374 C.3       1 <1>        -0.043969 
     58 C           1.544258   13.921362    1.239120 C.3       1 <1>        -0.043969 
     59 C          -6.832250   -0.496838   -0.370282 C.3       1 <1>         0.120590 
     60 C          -5.979179   -2.624785    0.655637 C.3       1 <1>         0.079203 
     61 C          -7.063377   -1.531850    0.770522 C.3       1 <1>         0.107307 
     62 C          -6.115013    2.012814    1.319038 C.3       1 <1>         0.188431 
     63 C          -8.004380   -1.496155   -2.292348 C.3       1 <1>         0.188803 
     64 C          -7.320306    1.848086    2.276592 C.3       1 <1>         0.134123 
     65 C          -8.486841   -0.488578   -3.375780 C.3       1 <1>         0.140628 
     66 C          -6.791900    1.420578    3.668912 C.3       1 <1>         0.113972 
     67 C          -4.722093    2.793375    3.150581 C.3       1 <1>         0.087307 
     68 C          -5.832993    2.511177    4.203900 C.3       1 <1>         0.109478 
     69 C          -7.615329   -0.612757   -4.657207 C.3       1 <1>         0.114429 
     70 C          -6.942007   -2.975017   -3.903571 C.3       1 <1>         0.113365 
     71 C          -7.448036   -2.099360   -5.086529 C.3       1 <1>         0.111916 
     72 C          -3.898795    4.045835    3.563764 C.3       1 <1>        -0.036060 
     73 C          -5.427933   -2.772156   -3.602937 C.3       1 <1>         0.079556 
     74 C         -10.574185    0.301214   -4.406443 C.3       1 <1>         0.188134 
     75 C         -11.141953   -0.331841   -5.706816 C.3       1 <1>         0.134103 
     76 C         -12.193075   -1.406764   -5.321546 C.3       1 <1>         0.113709 
     77 C         -12.621419   -0.092354   -3.220825 C.3       1 <1>         0.079193 
     78 C          -4.395094   -4.733226   -2.596550 C.3       1 <1>         0.188012 
     79 C         -13.296722   -0.759149   -4.450640 C.3       1 <1>         0.106933 
     80 C          -4.027540   -5.308843   -1.200809 C.3       1 <1>         0.134113 
     81 C          -3.269501   -6.643311   -1.397339 C.3       1 <1>         0.114061 
     82 C          -2.431446   -5.696835   -3.630837 C.3       1 <1>         0.113005 
     83 C          -2.026072   -6.389917   -2.295884 C.3       1 <1>         0.111896 
     84 C          -3.110550   -6.607873   -4.694720 C.3       1 <1>         0.073015 
     85 H          -1.931910    6.156822    1.195184 H         1 <1>         0.031229 
     86 H          -0.798820    3.902910   -1.808510 H         1 <1>         0.031156 
     87 H          -1.306915    8.290928   -0.844760 H         1 <1>         0.038356 
     88 H           1.942090    6.417155   -0.632062 H         1 <1>         0.032341 
     89 H           0.512083    6.646582   -1.682426 H         1 <1>         0.032341 
     90 H           1.728830    5.724615    1.785386 H         1 <1>         0.056658 
     91 H           0.149127    6.084811    2.566777 H         1 <1>         0.056658 
     92 H          -3.163827    6.606918   -0.935723 H         1 <1>         0.026833 
     93 H          -1.722873    6.231311   -1.900017 H         1 <1>         0.026833 
     94 H           2.055702    3.639482    0.335112 H         1 <1>         0.027088 
     95 H           1.432178    3.668011   -1.306145 H         1 <1>         0.027088 
     96 H          -0.016077    1.464939   -2.004986 H         1 <1>         0.031210 
     97 H          -3.143246    4.342530   -1.758307 H         1 <1>         0.026837 
     98 H          -3.227751    4.428636   -0.000241 H         1 <1>         0.026837 
     99 H           1.896455    1.373531   -0.724102 H         1 <1>         0.026846 
    100 H           1.061210    1.443134    0.795361 H         1 <1>         0.026846 
    101 H          -0.470134    2.557487    1.853025 H         1 <1>         0.023534 
    102 H          -1.078071    4.159976    2.220713 H         1 <1>         0.023534 
    103 H           0.637849    3.745230    2.290950 H         1 <1>         0.023534 
    104 H          -3.509093    2.156432   -1.945400 H         1 <1>         0.027149 
    105 H          -2.089771    2.293433   -2.950306 H         1 <1>         0.027149 
    106 H          -2.070955    1.112257    1.149389 H         1 <1>         0.023525 
    107 H          -3.452924    1.678600    0.240591 H         1 <1>         0.023525 
    108 H          -2.575530    2.752291    1.165569 H         1 <1>         0.023525 
    109 H          -1.468836   10.598075   -0.081326 H         1 <1>         0.032111 
    110 H          -1.441583   10.946604    1.668803 H         1 <1>         0.032111 
    111 H          -2.094255   -1.688257   -1.530423 H         1 <1>         0.060224 
    112 H          -3.573462   -0.002271   -2.694855 H         1 <1>         0.029047 
    113 H          -1.920906    0.056046   -3.233235 H         1 <1>         0.029047 
    114 H           0.835973    9.893131    1.812985 H         1 <1>         0.064228 
    115 H          -3.676444    7.892816    1.273529 H         1 <1>         0.025733 
    116 H          -3.666226    9.604263    1.753514 H         1 <1>         0.025733 
    117 H          -3.539355    9.158609    0.029675 H         1 <1>         0.025733 
    118 H           0.236952   -2.131112   -1.781781 H         1 <1>         0.023587 
    119 H           0.191420   -0.759816   -2.908847 H         1 <1>         0.023587 
    120 H           1.423888   -0.817592   -1.642229 H         1 <1>         0.023587 
    121 H          -0.528964   -1.976156    0.557545 H         1 <1>         0.023587 
    122 H           0.904325   -0.940735    0.667755 H         1 <1>         0.023587 
    123 H          -0.605067   -0.438812    1.416808 H         1 <1>         0.023587 
    124 H          -1.699479    7.727987    2.869846 H         1 <1>         0.210163 
    125 H           0.876064   11.931158   -0.455801 H         1 <1>         0.059695 
    126 H          -4.458334   -1.519431   -1.196724 H         1 <1>         0.093749 
    127 H          -5.232672    0.807771   -0.936992 H         1 <1>         0.067487 
    128 H           1.261497   13.085766    3.658838 H         1 <1>         0.027428 
    129 H           0.206677   11.697540    3.358855 H         1 <1>         0.027428 
    130 H           1.992954   11.508209    3.299763 H         1 <1>         0.027428 
    131 H           1.522334   14.132929    0.158850 H         1 <1>         0.027428 
    132 H           0.853021   14.614129    1.744185 H         1 <1>         0.027428 
    133 H           2.566075   14.094980    1.611778 H         1 <1>         0.027428 
    134 H          -7.592127    0.299384   -0.358701 H         1 <1>         0.065136 
    135 H          -6.103882   -3.336862    1.485740 H         1 <1>         0.058735 
    136 H          -6.137296   -3.172020   -0.284408 H         1 <1>         0.058735 
    137 H          -6.919241   -1.066861    1.758192 H         1 <1>         0.064310 
    138 H          -6.472686    2.418616    0.360919 H         1 <1>         0.093753 
    139 H          -9.076804   -1.511195    0.923434 H         1 <1>         0.209990 
    140 H          -8.814294   -1.578334   -1.553336 H         1 <1>         0.093763 
    141 H          -8.009592    1.075242    1.903437 H         1 <1>         0.067095 
    142 H          -8.358060    0.517973   -2.943307 H         1 <1>         0.067477 
    143 H          -6.234836    0.468423    3.594039 H         1 <1>         0.064757 
    144 H          -4.056118    1.916176    3.086133 H         1 <1>         0.062075 
    145 H          -6.438711    3.419551    4.373907 H         1 <1>         0.064584 
    146 H          -8.108613   -0.086431   -5.489632 H         1 <1>         0.064768 
    147 H          -8.755963    3.053541    2.992944 H         1 <1>         0.210110 
    148 H          -7.030396   -4.032673   -4.190195 H         1 <1>         0.064677 
    149 H          -6.722372   -2.139576   -5.918863 H         1 <1>         0.064673 
    150 H          -3.350842    4.435319    2.699077 H         1 <1>         0.025536 
    151 H          -4.553344    4.856450    3.914615 H         1 <1>         0.025536 
    152 H          -3.175809    3.806433    4.357625 H         1 <1>         0.025536 
    153 H          -7.640086    1.032327    5.437051 H         1 <1>         0.210005 
    154 H          -4.729422    2.668249    5.894344 H         1 <1>         0.210002 
    155 H          -5.239446   -1.714177   -3.413385 H         1 <1>         0.058744 
    156 H          -4.816211   -3.032054   -4.483443 H         1 <1>         0.058744 
    157 H          -5.795839    0.098056   -5.208498 H         1 <1>         0.210005 
    158 H          -9.940983    1.163067   -4.673038 H         1 <1>         0.093743 
    159 H          -8.661653   -3.482433   -5.918215 H         1 <1>         0.210004 
    160 H         -10.330353   -0.828623   -6.260493 H         1 <1>         0.067095 
    161 H         -12.648881   -1.806869   -6.244417 H         1 <1>         0.064747 
    162 H         -13.383095    0.441368   -2.633088 H         1 <1>         0.058735 
    163 H         -12.169237   -0.855885   -2.567410 H         1 <1>         0.058735 
    164 H          -5.113678   -5.395710   -3.100856 H         1 <1>         0.093741 
    165 H         -13.975718   -1.559857   -4.107251 H         1 <1>         0.064300 
    166 H         -11.144069    1.325645   -6.872553 H         1 <1>         0.210110 
    167 H          -4.955254   -5.498238   -0.634249 H         1 <1>         0.067095 
    168 H         -10.861516   -2.885790   -4.967326 H         1 <1>         0.210005 
    169 H          -2.922041   -7.007737   -0.413449 H         1 <1>         0.064758 
    170 H         -14.745985    0.614817   -4.754393 H         1 <1>         0.209989 
    171 H          -1.499977   -5.339550   -4.101080 H         1 <1>         0.064668 
    172 H          -1.533651   -7.355023   -2.498578 H         1 <1>         0.064673 
    173 H          -3.568870   -3.595187   -0.237608 H         1 <1>         0.210110 
    174 H          -4.007987   -7.121131   -4.321477 H         1 <1>         0.058370 
    175 H          -3.426216   -5.951892   -5.520927 H         1 <1>         0.058370 
    176 H          -4.860500   -7.888677   -1.451663 H         1 <1>         0.210005 
    177 H          -0.769955   -5.845318   -0.798227 H         1 <1>         0.210004 
    178 H          -1.916834   -8.239843   -4.669550 H         1 <1>         0.209508 
@<TRIPOS>BOND
     1    1   32 1    
     2   35    1 1    
     3   32    2 1    
     4    2   49 1    
     5   40    3 1    
     6    3  124 1    
     7    4   47 1    
     8   54    4 1    
     9   54    5 1    
    10   60    5 1    
    11   56    6 1    
    12    6   62 1    
    13    7   59 1    
    14   63    7 1    
    15   61    8 1    
    16    8  139 1    
    17   62    9 1    
    18    9   67 1    
    19   10   63 1    
    20   70   10 1    
    21   64   11 1    
    22   11  147 1    
    23   65   12 1    
    24   12   74 1    
    25   66   13 1    
    26   13  153 1    
    27   68   14 1    
    28   14  154 1    
    29   69   15 1    
    30   15  157 1    
    31   71   16 1    
    32   16  159 1    
    33   17   73 1    
    34   78   17 1    
    35   74   18 1    
    36   18   77 1    
    37   75   19 1    
    38   19  166 1    
    39   76   20 1    
    40   20  168 1    
    41   21   78 1    
    42   82   21 1    
    43   79   22 1    
    44   22  170 1    
    45   80   23 1    
    46   23  173 1    
    47   81   24 1    
    48   24  176 1    
    49   83   25 1    
    50   25  177 1    
    51   84   26 1    
    52   26  178 1    
    53   28   27 1    
    54   27   29 1    
    55   27   33 1    
    56   27   35 1    
    57   30   28 1    
    58   37   28 1    
    59   28   42 1    
    60   29   31 1    
    61   36   29 1    
    62   29   85 1    
    63   34   30 1    
    64   30   39 1    
    65   30   86 1    
    66   31   32 1    
    67   31   40 1    
    68   31   87 1    
    69   33   32 1    
    70   33   88 1    
    71   33   89 1    
    72   38   34 1    
    73   44   34 1    
    74   34   45 1    
    75   35   90 1    
    76   35   91 1    
    77   39   36 1    
    78   36   92 1    
    79   36   93 1    
    80   41   37 1    
    81   37   94 1    
    82   37   95 1    
    83   38   41 1    
    84   43   38 1    
    85   38   96 1    
    86   39   97 1    
    87   39   98 1    
    88   40   46 1    
    89   40   50 1    
    90   41   99 1    
    91   41  100 1    
    92   42  101 1    
    93   42  102 1    
    94   42  103 1    
    95   47   43 1    
    96   43   51 1    
    97   43   52 1    
    98   48   44 1    
    99   44  104 1    
   100   44  105 1    
   101   45  106 1    
   102   45  107 1    
   103   45  108 1    
   104   46   49 1    
   105   46  109 1    
   106   46  110 1    
   107   47   48 1    
   108   47  111 1    
   109   48  112 1    
   110   48  113 1    
   111   49   53 1    
   112   49  114 1    
   113   50  115 1    
   114   50  116 1    
   115   50  117 1    
   116   51  118 1    
   117   51  119 1    
   118   51  120 1    
   119   52  121 1    
   120   52  122 1    
   121   52  123 1    
   122   53   55 2    
   123   53  125 1    
   124   56   54 1    
   125   54  126 1    
   126   55   57 1    
   127   55   58 1    
   128   59   56 1    
   129   56  127 1    
   130   57  128 1    
   131   57  129 1    
   132   57  130 1    
   133   58  131 1    
   134   58  132 1    
   135   58  133 1    
   136   59   61 1    
   137   59  134 1    
   138   61   60 1    
   139   60  135 1    
   140   60  136 1    
   141   61  137 1    
   142   62   64 1    
   143   62  138 1    
   144   63   65 1    
   145   63  140 1    
   146   64   66 1    
   147   64  141 1    
   148   69   65 1    
   149   65  142 1    
   150   66   68 1    
   151   66  143 1    
   152   67   68 1    
   153   67   72 1    
   154   67  144 1    
   155   68  145 1    
   156   71   69 1    
   157   69  146 1    
   158   70   71 1    
   159   73   70 1    
   160   70  148 1    
   161   71  149 1    
   162   72  150 1    
   163   72  151 1    
   164   72  152 1    
   165   73  155 1    
   166   73  156 1    
   167   74   75 1    
   168   74  158 1    
   169   75   76 1    
   170   75  160 1    
   171   76   79 1    
   172   76  161 1    
   173   77   79 1    
   174   77  162 1    
   175   77  163 1    
   176   78   80 1    
   177   78  164 1    
   178   79  165 1    
   179   81   80 1    
   180   80  167 1    
   181   83   81 1    
   182   81  169 1    
   183   82   83 1    
   184   82   84 1    
   185   82  171 1    
   186   83  172 1    
   187   84  174 1    
   188   84  175 1    
@<TRIPOS>SUBSTRUCTURE
     1 ****       27 TEMP              0 ****  ****    0 ROOT 
@<TRIPOS>NORMAL
@<TRIPOS>FF_PBC
FORCE_FIELD_SETUP_FEATURE Force Field Setup information
v1.0  0 0.000000 0.000000 0.000000 0.000000 0.000000 0.000000 NONE 0 0 0 0 1 0 0 0 0 0 0 0 0
