@<TRIPOS>MOLECULE
MOL001667
   31    32     1     1     0
SMALL
GASTEIGER


@<TRIPOS>ATOM
      1 O           1.831194    1.014411    1.994066 O.3       1 <1>        -0.366101 
      2 C           0.716312    0.106293    1.966996 C.3       1 <1>         0.168466 
      3 O           1.105875   -1.023192    1.182017 O.3       1 <1>        -0.321968 
      4 C           1.486883   -0.718288   -0.067835 C.2       1 <1>         0.052357 
      5 C           0.996085    0.331825   -0.755925 C.2       1 <1>         0.053243 
      6 C          -0.173071    1.103085   -0.153384 C.3       1 <1>         0.032461 
      7 C          -0.517284    0.749910    1.316866 C.3       1 <1>         0.043257 
      8 C          -1.698722   -0.164176    1.164537 C.2       1 <1>        -0.037437 
      9 C          -2.219528   -0.143646   -0.059779 C.2       1 <1>        -0.053458 
     10 C          -1.467385    0.783221   -0.967460 C.3       1 <1>         0.081411 
     11 C          -2.186918   -0.973882    2.339101 C.3       1 <1>         0.065815 
     12 O          -3.495572   -1.500552    2.053930 O.3       1 <1>        -0.390723 
     13 O          -1.195489    0.112709   -2.210771 O.3       1 <1>        -0.387133 
     14 C           1.402495    0.898430   -2.089493 C.2       1 <1>         0.291816 
     15 O           0.855380    1.918213   -2.477861 O.2       1 <1>        -0.259506 
     16 O           2.337137    0.423970   -2.944113 O.3       1 <1>        -0.314939 
     17 C           3.111045   -0.743194   -2.650860 C.3       1 <1>         0.046187 
     18 H           1.668866    1.791184    2.518682 H         1 <1>         0.212509 
     19 H           0.489799   -0.245894    2.987874 H         1 <1>         0.091761 
     20 H           2.227726   -1.444970   -0.367556 H         1 <1>         0.089059 
     21 H           0.076205    2.177602   -0.191264 H         1 <1>         0.038700 
     22 H          -0.846455    1.631707    1.892020 H         1 <1>         0.040249 
     23 H          -3.087964   -0.724451   -0.368741 H         1 <1>         0.059804 
     24 H          -2.065473    1.697151   -1.126674 H         1 <1>         0.064386 
     25 H          -2.234192   -0.324530    3.229469 H         1 <1>         0.060400 
     26 H          -1.474630   -1.795550    2.521786 H         1 <1>         0.060400 
     27 H          -3.852030   -2.026218    2.764288 H         1 <1>         0.209834 
     28 H          -1.984340   -0.113381   -2.693549 H         1 <1>         0.210232 
     29 H           3.774664   -0.876689   -3.517721 H         1 <1>         0.052972 
     30 H           3.759622   -0.597462   -1.773694 H         1 <1>         0.052972 
     31 H           2.487497   -1.647431   -2.585112 H         1 <1>         0.052972 
@<TRIPOS>BOND
     1    1    2 1    
     2    1   18 1    
     3    2    3 1    
     4    2    7 1    
     5    2   19 1    
     6    3    4 1    
     7    4    5 2    
     8    4   20 1    
     9    5    6 1    
    10    5   14 1    
    11    6    7 1    
    12    6   10 1    
    13    6   21 1    
    14    7    8 1    
    15    7   22 1    
    16    8    9 2    
    17    8   11 1    
    18    9   10 1    
    19    9   23 1    
    20   10   13 1    
    21   10   24 1    
    22   11   12 1    
    23   11   25 1    
    24   11   26 1    
    25   12   27 1    
    26   13   28 1    
    27   14   15 2    
    28   14   16 1    
    29   16   17 1    
    30   17   29 1    
    31   17   30 1    
    32   17   31 1    
@<TRIPOS>SUBSTRUCTURE
     1 ****        1 TEMP              0 ****  ****    0 ROOT 
@<TRIPOS>NORMAL
@<TRIPOS>FF_PBC
FORCE_FIELD_SETUP_FEATURE Force Field Setup information
v1.0  0 0.000000 0.000000 0.000000 0.000000 0.000000 0.000000 NONE 0 0 0 0 1 0 0 0 0 0 0 0 0
