@<TRIPOS>MOLECULE
MOL000707
   20    19     1     1     0
SMALL
GASTEIGER


@<TRIPOS>ATOM
      1 C           2.203074   -3.532026    0.000105 C.2       1 <1>         0.142804 
      2 C           0.965091   -2.731248    0.000001 C.2       1 <1>        -0.026368 
      3 C           0.953956   -1.391901   -0.000106 C.2       1 <1>        -0.080990 
      4 C          -0.339780   -0.612372   -0.000218 C.3       1 <1>        -0.034381 
      5 C          -0.096880    0.921051    0.000076 C.3       1 <1>        -0.049854 
      6 C          -1.435838    1.708057   -0.000089 C.3       1 <1>        -0.055633 
      7 C          -1.189449    3.239384    0.000161 C.3       1 <1>        -0.065267 
      8 O           2.138461   -4.750493    0.000168 O.2       1 <1>        -0.296330 
      9 H           3.184408   -3.058427    0.000125 H         1 <1>         0.107505 
     10 H           0.019967   -3.275258    0.000010 H         1 <1>         0.064624 
     11 H           1.901466   -0.851226   -0.000124 H         1 <1>         0.057298 
     12 H          -0.920102   -0.891803   -0.894430 H         1 <1>         0.030742 
     13 H          -0.920475   -0.892092    0.893661 H         1 <1>         0.030742 
     14 H           0.487351    1.194925    0.894310 H         1 <1>         0.026813 
     15 H           0.487724    1.195206   -0.893828 H         1 <1>         0.026813 
     16 H          -2.022977    1.437876   -0.893738 H         1 <1>         0.026274 
     17 H          -2.023341    1.437635    0.893248 H         1 <1>         0.026274 
     18 H          -2.150231    3.778101    0.000034 H         1 <1>         0.022978 
     19 H          -0.621397    3.537237    0.895307 H         1 <1>         0.022978 
     20 H          -0.621028    3.537474   -0.894671 H         1 <1>         0.022978 
@<TRIPOS>BOND
     1    1    2 1    
     2    1    8 2    
     3    1    9 1    
     4    2    3 2    
     5    2   10 1    
     6    3    4 1    
     7    3   11 1    
     8    4    5 1    
     9    4   12 1    
    10    4   13 1    
    11    5    6 1    
    12    5   14 1    
    13    5   15 1    
    14    6    7 1    
    15    6   16 1    
    16    6   17 1    
    17    7   18 1    
    18    7   19 1    
    19    7   20 1    
@<TRIPOS>SUBSTRUCTURE
     1 ****        1 TEMP              0 ****  ****    0 ROOT 
@<TRIPOS>NORMAL
@<TRIPOS>FF_PBC
FORCE_FIELD_SETUP_FEATURE Force Field Setup information
v1.0  0 0.000000 0.000000 0.000000 0.000000 0.000000 0.000000 NONE 0 0 0 0 1 0 0 0 0 0 0 0 0
