@<TRIPOS>MOLECULE
MOL004644
   35    37     1     1     0
SMALL
GASTEIGER


@<TRIPOS>ATOM
      1 C          -3.565527   -1.538174    2.039748 C.ar      1 <1>         0.103606 
      2 C          -3.454807   -0.130162    2.517716 C.ar      1 <1>         0.114333 
      3 C          -2.396320    0.655559    2.125548 C.ar      1 <1>         0.075538 
      4 C          -1.373988    0.087669    1.218425 C.ar      1 <1>         0.366421 
      5 C          -1.482256   -1.131811    0.805525 C.ar      1 <1>         0.090371 
      6 C          -2.586351   -2.040226    1.185686 C.ar      1 <1>        -0.012977 
      7 O          -0.335791    0.706600    0.772738 O.2       1 <1>        -0.203658 
      8 C           0.295294   -0.147962   -0.003151 C.ar      1 <1>         0.366838 
      9 C          -0.319631   -1.337117   -0.060005 C.ar      1 <1>         0.059367 
     10 C           1.638786    1.383070   -1.354912 C.ar      1 <1>         0.091129 
     11 C           2.881955    1.734738   -2.087513 C.ar      1 <1>        -0.001035 
     12 C           3.925462    0.865583   -2.145951 C.ar      1 <1>         0.078294 
     13 C           3.815822   -0.451597   -1.463408 C.ar      1 <1>        -0.030678 
     14 C           2.677029   -0.778065   -0.786482 C.ar      1 <1>        -0.040669 
     15 C           1.544792    0.178806   -0.730650 C.ar      1 <1>         0.108632 
     16 O          -4.640151   -2.331389    2.452486 O.3       1 <1>        -0.357250 
     17 O          -4.416054    0.408167    3.372648 O.3       1 <1>        -0.345041 
     18 C          -5.709488    0.626667    2.784166 C.3       1 <1>         0.043141 
     19 O           0.558093    2.265081   -1.297397 O.3       1 <1>        -0.358852 
     20 O           5.073432    1.244943   -2.851654 O.3       1 <1>        -0.347829 
     21 C           6.218970    0.382984   -2.944241 C.3       1 <1>         0.043027 
     22 H          -2.312107    1.678183    2.475707 H         1 <1>         0.073869 
     23 H          -2.619227   -3.056299    0.806886 H         1 <1>         0.065296 
     24 H          -0.035338   -2.227560   -0.610208 H         1 <1>         0.072054 
     25 H           2.969498    2.693627   -2.586460 H         1 <1>         0.066931 
     26 H           4.630347   -1.166083   -1.491357 H         1 <1>         0.064351 
     27 H           2.601561   -1.739183   -0.286823 H         1 <1>         0.062802 
     28 H          -4.601426   -3.241017    2.177876 H         1 <1>         0.217422 
     29 H          -6.362714    1.068989    3.550885 H         1 <1>         0.052871 
     30 H          -5.635858    1.327419    1.938044 H         1 <1>         0.052871 
     31 H          -6.166351   -0.312788    2.438525 H         1 <1>         0.052871 
     32 H           0.713922    3.092540   -1.741411 H         1 <1>         0.217344 
     33 H           6.982092    0.902694   -3.542276 H         1 <1>         0.052870 
     34 H           6.640209    0.177687   -1.948148 H         1 <1>         0.052870 
     35 H           5.965021   -0.560073   -3.452061 H         1 <1>         0.052870 
@<TRIPOS>BOND
     1    1    2 1    
     2    6    1 2    
     3    1   16 1    
     4    3    2 2    
     5    2   17 1    
     6    4    3 1    
     7    3   22 1    
     8    5    4 2    
     9    7    4 1    
    10    5    6 1    
    11    9    5 1    
    12    6   23 1    
    13    8    7 1    
    14    8    9 2    
    15   15    8 1    
    16    9   24 1    
    17   10   11 1    
    18   10   15 2    
    19   10   19 1    
    20   11   12 2    
    21   11   25 1    
    22   12   13 1    
    23   12   20 1    
    24   13   14 2    
    25   13   26 1    
    26   14   15 1    
    27   14   27 1    
    28   16   28 1    
    29   17   18 1    
    30   18   29 1    
    31   18   30 1    
    32   18   31 1    
    33   19   32 1    
    34   20   21 1    
    35   21   33 1    
    36   21   34 1    
    37   21   35 1    
@<TRIPOS>SUBSTRUCTURE
     1 ****       10 TEMP              0 ****  ****    0 ROOT 
@<TRIPOS>NORMAL
@<TRIPOS>FF_PBC
FORCE_FIELD_SETUP_FEATURE Force Field Setup information
v1.0  0 0.000000 0.000000 0.000000 0.000000 0.000000 0.000000 NONE 0 0 0 0 1 0 0 0 0 0 0 0 0
