@<TRIPOS>MOLECULE
MOL000771
   20    20     1     1     0
SMALL
GASTEIGER


@<TRIPOS>ATOM
      1 C           1.632628    3.283450   -0.872519 C.2       1 <1>         0.284026 
      2 C           0.666752    2.204172   -0.586386 C.2       1 <1>         0.010297 
      3 C           1.039360    0.959569   -0.254099 C.2       1 <1>        -0.048941 
      4 C           0.106180   -0.197067    0.052699 C.ar      1 <1>        -0.024694 
      5 C           0.720761   -1.503742    0.401800 C.ar      1 <1>        -0.052160 
      6 C          -0.075200   -2.621082    0.698328 C.ar      1 <1>        -0.031383 
      7 C          -1.551382   -2.522288    0.669781 C.ar      1 <1>         0.072617 
      8 C          -2.151195   -1.288174    0.340043 C.ar      1 <1>        -0.031383 
      9 C          -1.311529   -0.106598    0.026467 C.ar      1 <1>        -0.052160 
     10 O           1.216363    4.393010   -1.168861 O.2       1 <1>        -0.260082 
     11 O           2.944864    3.043288   -0.806485 O.3       1 <1>        -0.327929 
     12 O          -2.317303   -3.652104    0.969673 O.3       1 <1>        -0.359832 
     13 H          -0.375262    2.500811   -0.667076 H         1 <1>         0.067729 
     14 H           2.108104    0.751781   -0.197051 H         1 <1>         0.062525 
     15 H           1.800914   -1.604355    0.430234 H         1 <1>         0.062423 
     16 H           0.386399   -3.569519    0.951743 H         1 <1>         0.064338 
     17 H          -3.231360   -1.191651    0.312700 H         1 <1>         0.064338 
     18 H          -1.816557    0.817534   -0.220529 H         1 <1>         0.062423 
     19 H           3.463755    3.813845   -1.011038 H         1 <1>         0.220537 
     20 H          -3.256390   -3.510881    0.930580 H         1 <1>         0.217313 
@<TRIPOS>BOND
     1    1    2 1    
     2    1   10 2    
     3    1   11 1    
     4    2    3 2    
     5    2   13 1    
     6    3    4 1    
     7    3   14 1    
     8    4    5 1    
     9    4    9 2    
    10    5    6 2    
    11    5   15 1    
    12    6    7 1    
    13    6   16 1    
    14    7    8 2    
    15    7   12 1    
    16    8    9 1    
    17    8   17 1    
    18    9   18 1    
    19   11   19 1    
    20   12   20 1    
@<TRIPOS>SUBSTRUCTURE
     1 ****        1 TEMP              0 ****  ****    0 ROOT 
@<TRIPOS>NORMAL
@<TRIPOS>FF_PBC
FORCE_FIELD_SETUP_FEATURE Force Field Setup information
v1.0  0 0.000000 0.000000 0.000000 0.000000 0.000000 0.000000 NONE 0 0 0 0 1 0 0 0 0 0 0 0 0
