@<TRIPOS>MOLECULE
MOL002943
   15    14     1     1     0
SMALL
GASTEIGER


@<TRIPOS>ATOM
      1 C          -0.534493    0.156019   -0.000111 C.3       1 <1>        -0.029967 
      2 C           0.797643   -0.642372    0.000120 C.3       1 <1>        -0.053840 
      3 C          -0.285449    1.685302    0.000123 C.3       1 <1>         0.044197 
      4 C           0.537476   -2.171286   -0.000119 C.3       1 <1>        -0.065205 
      5 O          -1.560967    2.351180   -0.000104 O.3       1 <1>        -0.395007 
      6 H          -1.125329   -0.106143   -0.893145 H         1 <1>         0.028715 
      7 H          -1.125757   -0.106344    0.892583 H         1 <1>         0.028715 
      8 H           1.386733   -0.377127    0.893920 H         1 <1>         0.026335 
      9 H           1.387164   -0.376924   -0.893338 H         1 <1>         0.026335 
     10 H           0.291744    1.966498    0.897839 H         1 <1>         0.055696 
     11 H           0.292168    1.966701   -0.897262 H         1 <1>         0.055696 
     12 H           1.493520   -2.718504    0.000053 H         1 <1>         0.022978 
     13 H          -0.033229   -2.463919   -0.895299 H         1 <1>         0.022978 
     14 H          -0.033666   -2.464123    0.894721 H         1 <1>         0.022978 
     15 H          -1.487654    3.301042    0.000020 H         1 <1>         0.209395 
@<TRIPOS>BOND
     1    1    2 1    
     2    1    3 1    
     3    1    6 1    
     4    1    7 1    
     5    2    4 1    
     6    2    8 1    
     7    2    9 1    
     8    3    5 1    
     9    3   10 1    
    10    3   11 1    
    11    4   12 1    
    12    4   13 1    
    13    4   14 1    
    14    5   15 1    
@<TRIPOS>SUBSTRUCTURE
     1 ****        1 TEMP              0 ****  ****    0 ROOT 
@<TRIPOS>NORMAL
@<TRIPOS>FF_PBC
FORCE_FIELD_SETUP_FEATURE Force Field Setup information
v1.0  0 0.000000 0.000000 0.000000 0.000000 0.000000 0.000000 NONE 0 0 0 0 1 0 0 0 0 0 0 0 0
