@<TRIPOS>MOLECULE
MOL002262
   33    34     1     1     0
SMALL
GASTEIGER


@<TRIPOS>ATOM
      1 C           1.525500   -1.704875   -1.250613 C.ar      1 <1>         0.075576 
      2 C           2.113182   -2.900024   -0.601774 C.ar      1 <1>        -0.002134 
      3 C           1.358487   -3.712017    0.169190 C.ar      1 <1>         0.075576 
      4 C          -0.077466   -3.395795    0.381602 C.ar      1 <1>        -0.024623 
      5 C          -0.632928   -2.292446   -0.195252 C.ar      1 <1>        -0.020152 
      6 C           0.201555   -1.422226   -1.062477 C.ar      1 <1>        -0.024623 
      7 C          -2.092572   -1.975239    0.051689 C.2       1 <1>        -0.053877 
      8 C          -2.570473   -0.740358    0.261214 C.2       1 <1>        -0.053953 
      9 C          -1.712206    0.502198    0.362788 C.ar      1 <1>        -0.022421 
     10 C          -2.171583    1.745587   -0.301418 C.ar      1 <1>        -0.022243 
     11 C          -1.426511    2.872187   -0.249742 C.ar      1 <1>         0.102997 
     12 C          -0.131210    2.882815    0.478510 C.ar      1 <1>         0.105438 
     13 C           0.291595    1.737675    1.108208 C.ar      1 <1>        -0.028600 
     14 C          -0.538415    0.510089    1.051741 C.ar      1 <1>        -0.051993 
     15 O           0.614321    4.072165    0.493527 O.3       1 <1>        -0.345349 
     16 C           1.897100    4.166480    1.134896 C.3       1 <1>         0.043135 
     17 O          -1.884638    4.026385   -0.887398 O.3       1 <1>        -0.357256 
     18 O           1.944057   -4.835202    0.757309 O.3       1 <1>        -0.359731 
     19 O           2.341618   -0.895647   -2.047479 O.3       1 <1>        -0.359731 
     20 H           3.162938   -3.124304   -0.752743 H         1 <1>         0.066901 
     21 H          -0.686338   -4.041606    1.005225 H         1 <1>         0.064912 
     22 H          -0.248360   -0.565097   -1.550242 H         1 <1>         0.064912 
     23 H          -2.790075   -2.814292    0.051615 H         1 <1>         0.062363 
     24 H          -3.646919   -0.601334    0.371478 H         1 <1>         0.062362 
     25 H          -3.114467    1.755004   -0.836814 H         1 <1>         0.064994 
     26 H           1.226068    1.696011    1.653098 H         1 <1>         0.064429 
     27 H          -0.197669   -0.379961    1.569821 H         1 <1>         0.062425 
     28 H           2.271715    5.190069    0.986884 H         1 <1>         0.052871 
     29 H           1.813493    3.982713    2.217066 H         1 <1>         0.052871 
     30 H           2.616737    3.465843    0.684009 H         1 <1>         0.052871 
     31 H          -1.268486    4.744221   -0.777944 H         1 <1>         0.217422 
     32 H           1.336697   -5.363501    1.262522 H         1 <1>         0.217315 
     33 H           1.920252   -0.116921   -2.393896 H         1 <1>         0.217315 
@<TRIPOS>BOND
     1    1    2 1    
     2    1    6 2    
     3    1   19 1    
     4    2    3 2    
     5    2   20 1    
     6    3    4 1    
     7    3   18 1    
     8    4    5 2    
     9    4   21 1    
    10    5    6 1    
    11    5    7 1    
    12    6   22 1    
    13    7    8 2    
    14    7   23 1    
    15    8    9 1    
    16    8   24 1    
    17    9   10 1    
    18    9   14 2    
    19   10   11 2    
    20   10   25 1    
    21   11   12 1    
    22   11   17 1    
    23   12   13 2    
    24   12   15 1    
    25   13   14 1    
    26   13   26 1    
    27   14   27 1    
    28   15   16 1    
    29   16   28 1    
    30   16   29 1    
    31   16   30 1    
    32   17   31 1    
    33   18   32 1    
    34   19   33 1    
@<TRIPOS>SUBSTRUCTURE
     1 ****        1 TEMP              0 ****  ****    0 ROOT 
@<TRIPOS>NORMAL
@<TRIPOS>FF_PBC
FORCE_FIELD_SETUP_FEATURE Force Field Setup information
v1.0  0 0.000000 0.000000 0.000000 0.000000 0.000000 0.000000 NONE 0 0 0 0 1 0 0 0 0 0 0 0 0
