@<TRIPOS>MOLECULE
MOL000776
    9     8     1     1     0
SMALL
GASTEIGER


@<TRIPOS>ATOM
      1 C           0.363120   -0.428498    0.000117 C.3       1 <1>         0.041384 
      2 C          -0.986515    0.327751   -0.000110 C.3       1 <1>        -0.041825 
      3 O           1.425099    0.541784   -0.000100 O.3       1 <1>        -0.395277 
      4 H           0.425222   -1.067932    0.897964 H         1 <1>         0.055421 
      5 H           0.425270   -1.068387   -0.897402 H         1 <1>         0.055421 
      6 H          -1.828262   -0.382616    0.000074 H         1 <1>         0.025164 
      7 H          -1.058095    0.965219   -0.895106 H         1 <1>         0.025164 
      8 H          -1.058120    0.965710    0.894534 H         1 <1>         0.025164 
      9 H           2.292182    0.147070    0.000029 H         1 <1>         0.209383 
@<TRIPOS>BOND
     1    1    2 1    
     2    1    3 1    
     3    1    4 1    
     4    1    5 1    
     5    2    6 1    
     6    2    7 1    
     7    2    8 1    
     8    3    9 1    
@<TRIPOS>SUBSTRUCTURE
     1 ****        1 TEMP              0 ****  ****    0 ROOT 
@<TRIPOS>NORMAL
@<TRIPOS>FF_PBC
FORCE_FIELD_SETUP_FEATURE Force Field Setup information
v1.0  0 0.000000 0.000000 0.000000 0.000000 0.000000 0.000000 NONE 0 0 0 0 1 0 0 0 0 0 0 0 0
