@<TRIPOS>MOLECULE
MOL011081
   53    52     1     1     0
SMALL
GASTEIGER


@<TRIPOS>ATOM
      1 O          -7.118278    6.383457    0.065332 O.3       1 <1>        -0.318522 
      2 O          -4.921665    6.329910    0.105684 O.2       1 <1>        -0.264985 
      3 C          -2.968921    1.528192   -0.002178 C.3       1 <1>        -0.053036 
      4 C          -2.936599   -0.020764   -0.128602 C.3       1 <1>        -0.052779 
      5 C          -4.425153    2.073153   -0.012533 C.3       1 <1>        -0.052596 
      6 C          -1.481418   -0.569195   -0.120422 C.3       1 <1>        -0.049616 
      7 C          -4.459758    3.626679    0.047938 C.3       1 <1>        -0.044055 
      8 C          -1.453565   -2.106096   -0.344771 C.3       1 <1>        -0.034751 
      9 C          -5.916052    4.175564    0.037053 C.3       1 <1>         0.033189 
     10 C          -0.038889   -2.639826   -0.329989 C.2       1 <1>        -0.087640 
     11 C          -5.960498    5.692047    0.071722 C.2       1 <1>         0.261905 
     12 C           0.320347   -3.747302    0.334643 C.2       1 <1>        -0.084202 
     13 C           1.737473   -4.270359    0.322317 C.3       1 <1>        -0.016536 
     14 C           2.723890   -3.158607    0.587202 C.2       1 <1>        -0.083911 
     15 C           3.774687   -2.897518   -0.205510 C.2       1 <1>        -0.083911 
     16 C           4.754544   -1.784775    0.079050 C.3       1 <1>        -0.016536 
     17 C          -8.348748    5.632549    0.026064 C.3       1 <1>         0.045865 
     18 C           6.133978   -2.363931    0.287398 C.2       1 <1>        -0.084210 
     19 C           7.195776   -2.014767   -0.454448 C.2       1 <1>        -0.087899 
     20 C           8.583532   -2.578789   -0.250342 C.3       1 <1>        -0.037599 
     21 C           9.580987   -1.448804    0.113262 C.3       1 <1>        -0.061821 
     22 H          -2.471673    1.829147    0.934432 H         1 <1>         0.026529 
     23 H          -2.411351    1.968768   -0.844815 H         1 <1>         0.026529 
     24 H          -3.427637   -0.314787   -1.070656 H         1 <1>         0.026538 
     25 H          -3.498770   -0.469213    0.707033 H         1 <1>         0.026538 
     26 H          -4.930682    1.737919   -0.932818 H         1 <1>         0.026540 
     27 H          -4.972161    1.660677    0.850910 H         1 <1>         0.026540 
     28 H          -1.001789   -0.334595    0.844403 H         1 <1>         0.026822 
     29 H          -0.902462   -0.080551   -0.921787 H         1 <1>         0.026822 
     30 H          -3.951248    3.968432    0.964920 H         1 <1>         0.027004 
     31 H          -3.916522    4.035548   -0.820444 H         1 <1>         0.027004 
     32 H          -1.882845   -2.338809   -1.332503 H         1 <1>         0.030732 
     33 H          -2.073244   -2.598673    0.422335 H         1 <1>         0.030732 
     34 H          -6.409592    3.815932   -0.878444 H         1 <1>         0.036606 
     35 H          -6.439925    3.771238    0.916324 H         1 <1>         0.036606 
     36 H           0.715641   -2.095769   -0.899704 H         1 <1>         0.056905 
     37 H          -0.426071   -4.308009    0.900304 H         1 <1>         0.057203 
     38 H           1.866653   -5.019688    1.119613 H         1 <1>         0.034962 
     39 H           1.912545   -4.770176   -0.643025 H         1 <1>         0.034962 
     40 H           2.546927   -2.556873    1.479875 H         1 <1>         0.057212 
     41 H           3.951660   -3.499172   -1.098162 H         1 <1>         0.057212 
     42 H           4.724796   -1.079281   -0.764794 H         1 <1>         0.034962 
     43 H           4.487818   -1.226663    0.989663 H         1 <1>         0.034962 
     44 H          -9.163867    6.371036    0.027881 H         1 <1>         0.052962 
     45 H          -8.480123    4.994150    0.912655 H         1 <1>         0.052962 
     46 H          -8.448162    5.034384   -0.892180 H         1 <1>         0.052962 
     47 H           6.241638   -3.095393    1.089887 H         1 <1>         0.057203 
     48 H           7.077333   -1.284631   -1.255286 H         1 <1>         0.056896 
     49 H           8.598723   -3.338577    0.547825 H         1 <1>         0.030466 
     50 H           8.906115   -3.061355   -1.187358 H         1 <1>         0.030466 
     51 H          10.589104   -1.865530    0.269528 H         1 <1>         0.023270 
     52 H           9.632518   -0.702836   -0.695941 H         1 <1>         0.023270 
     53 H           9.261217   -0.942757    1.038152 H         1 <1>         0.023270 
@<TRIPOS>BOND
     1   11    1 1    
     2    1   17 1    
     3   11    2 2    
     4    3    4 1    
     5    5    3 1    
     6    3   22 1    
     7    3   23 1    
     8    4    6 1    
     9    4   24 1    
    10    4   25 1    
    11    7    5 1    
    12    5   26 1    
    13    5   27 1    
    14    6    8 1    
    15    6   28 1    
    16    6   29 1    
    17    9    7 1    
    18    7   30 1    
    19    7   31 1    
    20    8   10 1    
    21    8   32 1    
    22    8   33 1    
    23    9   11 1    
    24    9   34 1    
    25    9   35 1    
    26   10   12 2    
    27   10   36 1    
    28   12   13 1    
    29   12   37 1    
    30   13   14 1    
    31   13   38 1    
    32   13   39 1    
    33   14   15 2    
    34   14   40 1    
    35   15   16 1    
    36   15   41 1    
    37   16   18 1    
    38   16   42 1    
    39   16   43 1    
    40   17   44 1    
    41   17   45 1    
    42   17   46 1    
    43   18   19 2    
    44   18   47 1    
    45   19   20 1    
    46   19   48 1    
    47   20   21 1    
    48   20   49 1    
    49   20   50 1    
    50   21   51 1    
    51   21   52 1    
    52   21   53 1    
@<TRIPOS>SUBSTRUCTURE
     1 ****        3 TEMP              0 ****  ****    0 ROOT 
@<TRIPOS>NORMAL
@<TRIPOS>FF_PBC
FORCE_FIELD_SETUP_FEATURE Force Field Setup information
v1.0  0 0.000000 0.000000 0.000000 0.000000 0.000000 0.000000 NONE 0 0 0 0 1 0 0 0 0 0 0 0 0
