@<TRIPOS>MOLECULE
MOL001662
   31    32     1     1     0
SMALL
GASTEIGER


@<TRIPOS>ATOM
      1 O           2.531600    0.443977    0.315343 O.3       1 <1>        -0.366101 
      2 O           0.886336    1.654324   -0.775801 O.3       1 <1>        -0.321968 
      3 O          -1.218880   -2.890784    0.393664 O.3       1 <1>        -0.387133 
      4 O          -1.383103   -0.635475   -3.929616 O.3       1 <1>        -0.390723 
      5 O          -0.375487    1.555626    3.360406 O.3       1 <1>        -0.314939 
      6 O          -2.201359    0.754424    2.409353 O.2       1 <1>        -0.259506 
      7 C           0.682042   -0.771321   -0.726400 C.3       1 <1>         0.043257 
      8 C          -0.100361   -0.714470    0.608371 C.3       1 <1>         0.032461 
      9 C           1.640215    0.432514   -0.812079 C.3       1 <1>         0.168466 
     10 C          -1.427021   -1.470476    0.287157 C.3       1 <1>         0.081411 
     11 C          -0.454357   -0.778511   -1.710144 C.2       1 <1>        -0.037437 
     12 C          -1.613951   -1.143729   -1.165305 C.2       1 <1>        -0.053458 
     13 C          -0.314698    0.729825    1.030679 C.2       1 <1>         0.053243 
     14 C          -0.197570   -0.417503   -3.146792 C.3       1 <1>         0.065815 
     15 C           0.106390    1.777308    0.308549 C.2       1 <1>         0.052357 
     16 C          -1.013493    1.014324    2.303417 C.2       1 <1>         0.291816 
     17 C           1.055162    1.756565    3.220335 C.3       1 <1>         0.046187 
     18 H           3.093076   -0.324877    0.345880 H         1 <1>         0.212509 
     19 H          -1.976281   -3.394590    0.102984 H         1 <1>         0.210232 
     20 H          -1.248382   -0.454349   -4.854921 H         1 <1>         0.209834 
     21 H           1.235971   -1.717598   -0.835876 H         1 <1>         0.040249 
     22 H           0.455302   -1.219657    1.412196 H         1 <1>         0.038700 
     23 H           2.220322    0.418900   -1.750290 H         1 <1>         0.091761 
     24 H          -2.281870   -1.155261    0.904933 H         1 <1>         0.064386 
     25 H          -2.565364   -1.223882   -1.694782 H         1 <1>         0.059804 
     26 H           0.617399   -1.068843   -3.499614 H         1 <1>         0.060400 
     27 H           0.118123    0.637137   -3.201962 H         1 <1>         0.060400 
     28 H          -0.169050    2.797290    0.582932 H         1 <1>         0.089059 
     29 H           1.468589    2.118177    4.179337 H         1 <1>         0.052972 
     30 H           1.297841    2.526791    2.472609 H         1 <1>         0.052972 
     31 H           1.578768    0.818676    2.965645 H         1 <1>         0.052972 
@<TRIPOS>BOND
     1    9    1 1    
     2    1   18 1    
     3    2    9 1    
     4   15    2 1    
     5   10    3 1    
     6    3   19 1    
     7   14    4 1    
     8    4   20 1    
     9   16    5 1    
    10    5   17 1    
    11   16    6 2    
    12    8    7 1    
    13    7    9 1    
    14    7   11 1    
    15    7   21 1    
    16    8   10 1    
    17   13    8 1    
    18    8   22 1    
    19    9   23 1    
    20   10   12 1    
    21   10   24 1    
    22   12   11 2    
    23   11   14 1    
    24   12   25 1    
    25   13   15 2    
    26   13   16 1    
    27   14   26 1    
    28   14   27 1    
    29   15   28 1    
    30   17   29 1    
    31   17   30 1    
    32   17   31 1    
@<TRIPOS>SUBSTRUCTURE
     1 ****        7 TEMP              0 ****  ****    0 ROOT 
@<TRIPOS>NORMAL
@<TRIPOS>FF_PBC
FORCE_FIELD_SETUP_FEATURE Force Field Setup information
v1.0  0 0.000000 0.000000 0.000000 0.000000 0.000000 0.000000 NONE 0 0 0 0 1 0 0 0 0 0 0 0 0
