@<TRIPOS>MOLECULE
MOL006126
   53    54     1     1     0
SMALL
GASTEIGER


@<TRIPOS>ATOM
      1 C           1.036672    1.267618   -2.563139 C.3       1 <1>        -0.020924 
      2 C           1.875773    1.668246   -1.319528 C.3       1 <1>         0.009887 
      3 C           3.254054    1.040725   -1.309811 C.2       1 <1>         0.136114 
      4 C           4.208134    1.358811   -0.177006 C.3       1 <1>         0.031875 
      5 C           3.565685    1.505399    1.229703 C.3       1 <1>         0.062195 
      6 C           2.830970    0.207899    1.688175 C.3       1 <1>        -0.022468 
      7 C           1.761104    0.487292    2.785530 C.3       1 <1>        -0.025254 
      8 O           3.605437    0.290693   -2.205618 O.2       1 <1>        -0.297311 
      9 C           0.636178   -0.557542    2.718167 C.ar      1 <1>        -0.044678 
     10 C           0.911346   -1.969148    3.079134 C.ar      1 <1>        -0.025975 
     11 C          -0.098057   -2.946103    2.997456 C.ar      1 <1>         0.105659 
     12 C          -1.471819   -2.569196    2.573705 C.ar      1 <1>         0.102451 
     13 C          -1.740851   -1.219324    2.231612 C.ar      1 <1>        -0.029141 
     14 C          -0.668366   -0.198814    2.304250 C.ar      1 <1>        -0.055980 
     15 O           0.209446   -4.269666    3.324694 O.3       1 <1>        -0.345341 
     16 C           0.158078   -5.191708    2.222283 C.3       1 <1>         0.043136 
     17 O          -2.478916   -3.539421    2.518468 O.3       1 <1>        -0.357269 
     18 C          -0.478071    1.497971   -2.418101 C.ar      1 <1>        -0.044363 
     19 C          -1.375807    0.812757   -3.379931 C.ar      1 <1>        -0.025965 
     20 C          -2.772655    0.917648   -3.303332 C.ar      1 <1>         0.105659 
     21 C          -3.383965    1.728765   -2.209914 C.ar      1 <1>         0.102451 
     22 C          -2.533959    2.418640   -1.310665 C.ar      1 <1>        -0.029141 
     23 C          -1.060720    2.315662   -1.421119 C.ar      1 <1>        -0.055971 
     24 O          -3.533395    0.250420   -4.277379 O.3       1 <1>        -0.345341 
     25 C          -4.964833    0.334708   -4.322698 C.3       1 <1>         0.043136 
     26 O          -4.773464    1.811039   -2.065215 O.3       1 <1>        -0.357269 
     27 O           4.610183    1.833996    2.163088 O.3       1 <1>        -0.391360 
     28 H           1.155794    0.184327   -2.727399 H         1 <1>         0.031720 
     29 H           1.406256    1.792775   -3.457654 H         1 <1>         0.031720 
     30 H           1.971819    2.763646   -1.268025 H         1 <1>         0.034471 
     31 H           1.323934    1.319869   -0.438258 H         1 <1>         0.034471 
     32 H           4.965485    0.560394   -0.121530 H         1 <1>         0.036674 
     33 H           4.728438    2.293831   -0.437903 H         1 <1>         0.036674 
     34 H           2.874883    2.362155    1.169657 H         1 <1>         0.059732 
     35 H           3.572202   -0.519837    2.056045 H         1 <1>         0.029327 
     36 H           2.333527   -0.272082    0.834568 H         1 <1>         0.029327 
     37 H           1.311147    1.481590    2.646449 H         1 <1>         0.031398 
     38 H           2.220050    0.474088    3.786275 H         1 <1>         0.031398 
     39 H           1.904546   -2.257747    3.405964 H         1 <1>         0.064684 
     40 H          -2.734239   -0.920510    1.913358 H         1 <1>         0.064412 
     41 H          -0.902359    0.825965    2.033097 H         1 <1>         0.062110 
     42 H           0.447762   -6.186254    2.593097 H         1 <1>         0.052871 
     43 H          -0.852585   -5.264847    1.793139 H         1 <1>         0.052871 
     44 H           0.864831   -4.888712    1.433732 H         1 <1>         0.052871 
     45 H          -3.353091   -3.193048    2.378892 H         1 <1>         0.217422 
     46 H          -0.946991    0.213124   -4.176305 H         1 <1>         0.064684 
     47 H          -2.953770    3.028206   -0.517238 H         1 <1>         0.064412 
     48 H          -0.453765    2.871053   -0.715893 H         1 <1>         0.062110 
     49 H          -5.299079   -0.221434   -5.210014 H         1 <1>         0.052871 
     50 H          -5.299667    1.378258   -4.423133 H         1 <1>         0.052871 
     51 H          -5.412709   -0.130825   -3.431991 H         1 <1>         0.052871 
     52 H          -5.064054    2.175990   -1.236658 H         1 <1>         0.217422 
     53 H           4.295252    1.986059    3.048416 H         1 <1>         0.209791 
@<TRIPOS>BOND
     1    1    2 1    
     2    1   18 1    
     3    1   28 1    
     4    1   29 1    
     5    2    3 1    
     6    2   30 1    
     7    2   31 1    
     8    3    4 1    
     9    3    8 2    
    10    4    5 1    
    11    4   32 1    
    12    4   33 1    
    13    5    6 1    
    14    5   27 1    
    15    5   34 1    
    16    6    7 1    
    17    6   35 1    
    18    6   36 1    
    19    7    9 1    
    20    7   37 1    
    21    7   38 1    
    22    9   10 1    
    23    9   14 2    
    24   10   11 2    
    25   10   39 1    
    26   11   12 1    
    27   11   15 1    
    28   12   13 2    
    29   12   17 1    
    30   13   14 1    
    31   13   40 1    
    32   14   41 1    
    33   15   16 1    
    34   16   42 1    
    35   16   43 1    
    36   16   44 1    
    37   17   45 1    
    38   18   19 1    
    39   18   23 2    
    40   19   20 2    
    41   19   46 1    
    42   20   21 1    
    43   20   24 1    
    44   21   22 2    
    45   21   26 1    
    46   22   23 1    
    47   22   47 1    
    48   23   48 1    
    49   24   25 1    
    50   25   49 1    
    51   25   50 1    
    52   25   51 1    
    53   26   52 1    
    54   27   53 1    
@<TRIPOS>SUBSTRUCTURE
     1 ****        1 TEMP              0 ****  ****    0 ROOT 
@<TRIPOS>NORMAL
@<TRIPOS>FF_PBC
FORCE_FIELD_SETUP_FEATURE Force Field Setup information
v1.0  0 0.000000 0.000000 0.000000 0.000000 0.000000 0.000000 NONE 0 0 0 0 1 0 0 0 0 0 0 0 0
