@<TRIPOS>MOLECULE
MOL010120
   42    43     1     1     0
SMALL
GASTEIGER


@<TRIPOS>ATOM
      1 O           0.952066   -1.745781   -0.653372 O.3       1 <1>        -0.387710 
      2 C           0.063960   -1.308115    0.394727 C.3       1 <1>         0.075396 
      3 C           0.065880    0.250888    0.343875 C.3       1 <1>         0.009507 
      4 C          -0.454987    0.828282   -1.023805 C.3       1 <1>        -0.029796 
      5 C          -1.393905   -1.866125    0.226637 C.3       1 <1>        -0.014374 
      6 C          -1.338324   -0.246952   -1.740170 C.3       1 <1>        -0.049021 
      7 C          -2.248949   -0.968724   -0.717972 C.3       1 <1>        -0.047560 
      8 C           0.654357   -1.745688    1.767671 C.3       1 <1>        -0.019514 
      9 C          -1.201686    2.213108   -0.881646 C.3       1 <1>        -0.043263 
     10 C           1.462039    0.751844    0.677412 C.2       1 <1>        -0.078938 
     11 C           2.143244   -1.337846    1.867626 C.3       1 <1>        -0.029370 
     12 C          -1.430514   -3.346452   -0.258676 C.3       1 <1>        -0.059787 
     13 C           2.389292    0.059185    1.356459 C.2       1 <1>        -0.076076 
     14 C          -0.435194    3.272552   -0.032438 C.3       1 <1>        -0.062395 
     15 C          -1.513748    2.884835   -2.257936 C.3       1 <1>        -0.062395 
     16 C           3.763291    0.623578    1.650242 C.3       1 <1>        -0.043776 
     17 H          -0.619169    0.585244    1.138381 H         1 <1>         0.037371 
     18 H           1.125941   -2.679696   -0.650277 H         1 <1>         0.210196 
     19 H           0.417134    0.997272   -1.677957 H         1 <1>         0.030981 
     20 H          -1.889884   -1.854614    1.213606 H         1 <1>         0.032593 
     21 H          -0.712427   -1.002135   -2.241459 H         1 <1>         0.026830 
     22 H          -1.964500    0.179057   -2.532524 H         1 <1>         0.026830 
     23 H          -2.799913   -0.213368   -0.135796 H         1 <1>         0.026883 
     24 H          -3.006284   -1.569764   -1.248330 H         1 <1>         0.026883 
     25 H           0.580285   -2.834147    1.913866 H         1 <1>         0.029615 
     26 H           0.092830   -1.260498    2.583030 H         1 <1>         0.029615 
     27 H          -2.162042    2.048689   -0.366528 H         1 <1>         0.029833 
     28 H           1.752805    1.743957    0.345551 H         1 <1>         0.057532 
     29 H           2.470804   -1.425950    2.916429 H         1 <1>         0.031079 
     30 H           2.759858   -2.020770    1.261538 H         1 <1>         0.031079 
     31 H          -2.461466   -3.732998   -0.222147 H         1 <1>         0.023330 
     32 H          -0.811522   -3.999412    0.373034 H         1 <1>         0.023330 
     33 H          -1.079441   -3.424342   -1.298739 H         1 <1>         0.023330 
     34 H          -1.032671    4.192352    0.069281 H         1 <1>         0.023242 
     35 H          -0.231503    2.926956    0.990656 H         1 <1>         0.023242 
     36 H           0.510626    3.543981   -0.524907 H         1 <1>         0.023242 
     37 H          -1.907523    3.903497   -2.117820 H         1 <1>         0.023242 
     38 H          -2.273451    2.352200   -2.844224 H         1 <1>         0.023242 
     39 H          -0.594870    2.958179   -2.859298 H         1 <1>         0.023242 
     40 H           3.917840    1.631003    1.235267 H         1 <1>         0.027436 
     41 H           3.912850    0.678153    2.738938 H         1 <1>         0.027436 
     42 H           4.528375   -0.041433    1.222097 H         1 <1>         0.027436 
@<TRIPOS>BOND
     1    1    2 1    
     2    1   18 1    
     3    2    3 1    
     4    2    5 1    
     5    2    8 1    
     6    3    4 1    
     7    3   10 1    
     8    3   17 1    
     9    4    6 1    
    10    4    9 1    
    11    4   19 1    
    12    5    7 1    
    13    5   12 1    
    14    5   20 1    
    15    6    7 1    
    16    6   21 1    
    17    6   22 1    
    18    7   23 1    
    19    7   24 1    
    20    8   11 1    
    21    8   25 1    
    22    8   26 1    
    23    9   14 1    
    24    9   15 1    
    25    9   27 1    
    26   10   13 2    
    27   10   28 1    
    28   11   13 1    
    29   11   29 1    
    30   11   30 1    
    31   12   31 1    
    32   12   32 1    
    33   12   33 1    
    34   13   16 1    
    35   14   34 1    
    36   14   35 1    
    37   14   36 1    
    38   15   37 1    
    39   15   38 1    
    40   15   39 1    
    41   16   40 1    
    42   16   41 1    
    43   16   42 1    
@<TRIPOS>SUBSTRUCTURE
     1 ****        1 TEMP              0 ****  ****    0 ROOT 
@<TRIPOS>NORMAL
@<TRIPOS>FF_PBC
FORCE_FIELD_SETUP_FEATURE Force Field Setup information
v1.0  0 0.000000 0.000000 0.000000 0.000000 0.000000 0.000000 NONE 0 0 0 0 1 0 0 0 0 0 0 0 0
