@<TRIPOS>MOLECULE
MOL003055
   58    58     1     1     0
SMALL
GASTEIGER


@<TRIPOS>ATOM
      1 O          -3.380489   11.036890   -1.016443 O.3       1 <1>        -0.371745 
      2 C          -2.937627   10.082957   -0.091580 C.3       1 <1>         0.082056 
      3 C          -4.376810   10.076979   -0.765775 C.3       1 <1>         0.074286 
      4 C          -1.998408    8.973534   -0.620307 C.3       1 <1>        -0.024431 
      5 C          -2.391285    7.590289   -0.035253 C.3       1 <1>        -0.050641 
      6 C          -1.448723    6.471230   -0.557001 C.3       1 <1>        -0.052976 
      7 C          -1.798777    5.086995    0.056878 C.3       1 <1>        -0.053056 
      8 C          -0.843245    3.981855   -0.472797 C.3       1 <1>        -0.053057 
      9 C          -1.141137    2.599101    0.170955 C.3       1 <1>        -0.053057 
     10 C          -0.170991    1.510208   -0.366607 C.3       1 <1>        -0.053057 
     11 C          -0.415728    0.132342    0.308845 C.3       1 <1>        -0.053057 
     12 C           0.562460   -0.942659   -0.240956 C.3       1 <1>        -0.053057 
     13 C           0.360852   -2.314221    0.459142 C.3       1 <1>        -0.053057 
     14 C           1.330870   -3.384159   -0.113019 C.3       1 <1>        -0.053057 
     15 C           1.151792   -4.751979    0.600486 C.3       1 <1>        -0.053057 
     16 C           2.101042   -5.827720    0.004704 C.3       1 <1>        -0.053057 
     17 C           1.926612   -7.195125    0.720992 C.3       1 <1>        -0.053065 
     18 C           2.857161   -8.275847    0.105604 C.3       1 <1>        -0.053306 
     19 C           2.683278   -9.645202    0.816595 C.3       1 <1>        -0.055911 
     20 C           3.605464  -10.722705    0.190325 C.3       1 <1>        -0.065276 
     21 H          -2.977682   10.333956    0.979804 H         1 <1>         0.061877 
     22 H          -5.231684   10.579589   -0.288288 H         1 <1>         0.058563 
     23 H          -4.579106    9.546698   -1.708819 H         1 <1>         0.058563 
     24 H          -0.972338    9.234144   -0.317078 H         1 <1>         0.029085 
     25 H          -2.033515    8.945540   -1.721493 H         1 <1>         0.029085 
     26 H          -3.429774    7.354623   -0.318245 H         1 <1>         0.026609 
     27 H          -2.335550    7.636897    1.064592 H         1 <1>         0.026609 
     28 H          -0.408098    6.727767   -0.299172 H         1 <1>         0.026529 
     29 H          -1.526717    6.412441   -1.655058 H         1 <1>         0.026529 
     30 H          -2.838684    4.823986   -0.196547 H         1 <1>         0.026528 
     31 H          -1.714937    5.145832    1.154289 H         1 <1>         0.026528 
     32 H           0.197736    4.265489   -0.246473 H         1 <1>         0.026528 
     33 H          -0.948961    3.904662   -1.567328 H         1 <1>         0.026528 
     34 H          -2.180200    2.305455   -0.050891 H         1 <1>         0.026528 
     35 H          -1.030126    2.676678    1.264798 H         1 <1>         0.026528 
     36 H           0.868225    1.823563   -0.173355 H         1 <1>         0.026528 
     37 H          -0.303625    1.411104   -1.456799 H         1 <1>         0.026528 
     38 H          -1.454109   -0.188495    0.123633 H         1 <1>         0.026528 
     39 H          -0.273613    0.230898    1.397621 H         1 <1>         0.026528 
     40 H           1.600275   -0.606847   -0.081230 H         1 <1>         0.026528 
     41 H           0.400717   -1.058872   -1.325189 H         1 <1>         0.026528 
     42 H          -0.678899   -2.649844    0.313823 H         1 <1>         0.026528 
     43 H           0.539386   -2.201379    1.541013 H         1 <1>         0.026528 
     44 H           2.371151   -3.042466    0.015517 H         1 <1>         0.026528 
     45 H           1.139325   -3.507797   -1.191669 H         1 <1>         0.026528 
     46 H           0.107440   -5.087428    0.489331 H         1 <1>         0.026528 
     47 H           1.364235   -4.633255    1.675866 H         1 <1>         0.026528 
     48 H           3.146309   -5.492269    0.109175 H         1 <1>         0.026528 
     49 H           1.883222   -5.949059   -1.069432 H         1 <1>         0.026528 
     50 H           0.877984   -7.523345    0.629566 H         1 <1>         0.026528 
     51 H           2.159772   -7.078068    1.792343 H         1 <1>         0.026528 
     52 H           3.906044   -7.948633    0.196094 H         1 <1>         0.026520 
     53 H           2.622281   -8.390667   -0.965396 H         1 <1>         0.026520 
     54 H           1.634502   -9.974950    0.731965 H         1 <1>         0.026265 
     55 H           2.925939   -9.538849    1.886965 H         1 <1>         0.026265 
     56 H           3.469216  -11.685689    0.706668 H         1 <1>         0.022978 
     57 H           4.661212  -10.423645    0.279810 H         1 <1>         0.022978 
     58 H           3.366336  -10.860327   -0.875500 H         1 <1>         0.022978 
@<TRIPOS>BOND
     1    1    2 1    
     2    1    3 1    
     3    2    3 1    
     4    2    4 1    
     5    2   21 1    
     6    3   22 1    
     7    3   23 1    
     8    4    5 1    
     9    4   24 1    
    10    4   25 1    
    11    5    6 1    
    12    5   26 1    
    13    5   27 1    
    14    6    7 1    
    15    6   28 1    
    16    6   29 1    
    17    7    8 1    
    18    7   30 1    
    19    7   31 1    
    20    8    9 1    
    21    8   32 1    
    22    8   33 1    
    23    9   10 1    
    24    9   34 1    
    25    9   35 1    
    26   10   11 1    
    27   10   36 1    
    28   10   37 1    
    29   11   12 1    
    30   11   38 1    
    31   11   39 1    
    32   12   13 1    
    33   12   40 1    
    34   12   41 1    
    35   13   14 1    
    36   13   42 1    
    37   13   43 1    
    38   14   15 1    
    39   14   44 1    
    40   14   45 1    
    41   15   16 1    
    42   15   46 1    
    43   15   47 1    
    44   16   17 1    
    45   16   48 1    
    46   16   49 1    
    47   17   18 1    
    48   17   50 1    
    49   17   51 1    
    50   18   19 1    
    51   18   52 1    
    52   18   53 1    
    53   19   20 1    
    54   19   54 1    
    55   19   55 1    
    56   20   56 1    
    57   20   57 1    
    58   20   58 1    
@<TRIPOS>SUBSTRUCTURE
     1 ****        1 TEMP              0 ****  ****    0 ROOT 
@<TRIPOS>NORMAL
@<TRIPOS>FF_PBC
FORCE_FIELD_SETUP_FEATURE Force Field Setup information
v1.0  0 0.000000 0.000000 0.000000 0.000000 0.000000 0.000000 NONE 0 0 0 0 1 0 0 0 0 0 0 0 0
