@<TRIPOS>MOLECULE
MOL005303
   40    39     1     1     0
SMALL
GASTEIGER


@<TRIPOS>ATOM
      1 C          -0.106868    1.787102    0.972773 C.1       1 <1>        -0.102220 
      2 C          -1.213692    1.315248    0.973913 C.1       1 <1>        -0.102220 
      3 C           1.237554    2.353992    0.969409 C.3       1 <1>         0.009130 
      4 C          -2.554060    0.738836    0.971305 C.3       1 <1>         0.009130 
      5 C           2.294745    1.219340    0.957289 C.3       1 <1>        -0.042172 
      6 C          -2.750543   -0.148535   -0.285359 C.3       1 <1>        -0.042172 
      7 C           3.738185    1.792286    0.949688 C.3       1 <1>        -0.052213 
      8 C          -4.168978   -0.780222   -0.314603 C.3       1 <1>        -0.052213 
      9 C           4.797246    0.656008    0.941110 C.3       1 <1>        -0.053278 
     10 C          -4.367224   -1.666217   -1.574968 C.3       1 <1>        -0.053278 
     11 C           6.241055    1.228116    0.927964 C.3       1 <1>        -0.055911 
     12 C          -5.783612   -2.302743   -1.602237 C.3       1 <1>        -0.055911 
     13 C           7.297695    0.092763    0.921931 C.3       1 <1>        -0.065276 
     14 C          -5.981355   -3.185153   -2.862316 C.3       1 <1>        -0.065276 
     15 H           1.340634    2.989820    0.076337 H         1 <1>         0.039736 
     16 H           1.350263    2.980495    1.867876 H         1 <1>         0.039736 
     17 H          -2.674197    0.143089    1.889528 H         1 <1>         0.039736 
     18 H          -3.284245    1.562937    0.983068 H         1 <1>         0.039736 
     19 H           2.154192    0.586044    1.849114 H         1 <1>         0.027427 
     20 H           2.142166    0.593779    0.061942 H         1 <1>         0.027427 
     21 H          -2.602505    0.467159   -1.188230 H         1 <1>         0.027427 
     22 H          -1.991224   -0.948339   -0.284412 H         1 <1>         0.027427 
     23 H           3.873770    2.424370    0.056612 H         1 <1>         0.026556 
     24 H           3.884960    2.420928    1.843436 H         1 <1>         0.026556 
     25 H          -4.312110   -1.394557    0.589612 H         1 <1>         0.026556 
     26 H          -4.924952    0.022277   -0.310323 H         1 <1>         0.026556 
     27 H           4.663734    0.026239    1.836153 H         1 <1>         0.026520 
     28 H           4.648414    0.024745    0.049557 H         1 <1>         0.026520 
     29 H          -4.227603   -1.050812   -2.479026 H         1 <1>         0.026520 
     30 H          -3.608998   -2.466566   -1.581734 H         1 <1>         0.026520 
     31 H           6.381512    1.855360    0.031777 H         1 <1>         0.026265 
     32 H           6.396174    1.859625    1.818699 H         1 <1>         0.026265 
     33 H          -5.926830   -2.923493   -0.701975 H         1 <1>         0.026265 
     34 H          -6.546534   -1.506378   -1.597000 H         1 <1>         0.026265 
     35 H           8.313101    0.519776    0.913131 H         1 <1>         0.022978 
     36 H           7.190558   -0.536739    1.819084 H         1 <1>         0.022978 
     37 H           7.176505   -0.540380    0.029134 H         1 <1>         0.022978 
     38 H          -6.990957   -3.625799   -2.862069 H         1 <1>         0.022978 
     39 H          -5.862905   -2.582252   -3.776162 H         1 <1>         0.022978 
     40 H          -5.242975   -4.001946   -2.879329 H         1 <1>         0.022978 
@<TRIPOS>BOND
     1    1    2 3    
     2    1    3 1    
     3    2    4 1    
     4    3    5 1    
     5    3   15 1    
     6    3   16 1    
     7    4    6 1    
     8    4   17 1    
     9    4   18 1    
    10    5    7 1    
    11    5   19 1    
    12    5   20 1    
    13    6    8 1    
    14    6   21 1    
    15    6   22 1    
    16    7    9 1    
    17    7   23 1    
    18    7   24 1    
    19    8   10 1    
    20    8   25 1    
    21    8   26 1    
    22    9   11 1    
    23    9   27 1    
    24    9   28 1    
    25   10   12 1    
    26   10   29 1    
    27   10   30 1    
    28   11   13 1    
    29   11   31 1    
    30   11   32 1    
    31   12   14 1    
    32   12   33 1    
    33   12   34 1    
    34   13   35 1    
    35   13   36 1    
    36   13   37 1    
    37   14   38 1    
    38   14   39 1    
    39   14   40 1    
@<TRIPOS>SUBSTRUCTURE
     1 ****        1 TEMP              0 ****  ****    0 ROOT 
@<TRIPOS>NORMAL
@<TRIPOS>FF_PBC
FORCE_FIELD_SETUP_FEATURE Force Field Setup information
v1.0  0 0.000000 0.000000 0.000000 0.000000 0.000000 0.000000 NONE 0 0 0 0 1 0 0 0 0 0 0 0 0
