@<TRIPOS>MOLECULE
MOL001397
   20    19     1     1     0
SMALL
GASTEIGER


@<TRIPOS>ATOM
      1 C          -3.339042    1.402014   -0.000064 C.2       1 <1>         0.142804 
      2 C          -3.033390   -0.041383    0.000051 C.2       1 <1>        -0.026368 
      3 C          -1.802419   -0.572218    0.000025 C.2       1 <1>        -0.080990 
      4 C          -0.539702    0.257286   -0.000122 C.3       1 <1>        -0.034381 
      5 C           0.737031   -0.626756    0.000069 C.3       1 <1>        -0.049854 
      6 C           2.027070    0.238224   -0.000101 C.3       1 <1>        -0.055633 
      7 C           3.300115   -0.647742    0.000123 C.3       1 <1>        -0.065267 
      8 O          -4.501958    1.771598    0.000017 O.2       1 <1>        -0.296330 
      9 H          -2.561840    2.164493   -0.000224 H         1 <1>         0.107505 
     10 H          -3.893355   -0.713280    0.000165 H         1 <1>         0.064624 
     11 H          -1.712523   -1.660430    0.000111 H         1 <1>         0.057298 
     12 H          -0.533222    0.898208   -0.896411 H         1 <1>         0.030742 
     13 H          -0.533229    0.898559    0.895919 H         1 <1>         0.030742 
     14 H           0.731103   -1.272158    0.894220 H         1 <1>         0.026813 
     15 H           0.731121   -1.272525   -0.893818 H         1 <1>         0.026813 
     16 H           2.038640    0.884431   -0.893747 H         1 <1>         0.026274 
     17 H           2.038610    0.884833    0.893256 H         1 <1>         0.026274 
     18 H           4.202084   -0.015361   -0.000017 H         1 <1>         0.022978 
     19 H           3.322345   -1.288733    0.895283 H         1 <1>         0.022978 
     20 H           3.322365   -1.289158   -0.894733 H         1 <1>         0.022978 
@<TRIPOS>BOND
     1    1    2 1    
     2    1    8 2    
     3    1    9 1    
     4    2    3 2    
     5    2   10 1    
     6    3    4 1    
     7    3   11 1    
     8    4    5 1    
     9    4   12 1    
    10    4   13 1    
    11    5    6 1    
    12    5   14 1    
    13    5   15 1    
    14    6    7 1    
    15    6   16 1    
    16    6   17 1    
    17    7   18 1    
    18    7   19 1    
    19    7   20 1    
@<TRIPOS>SUBSTRUCTURE
     1 ****        1 TEMP              0 ****  ****    0 ROOT 
@<TRIPOS>NORMAL
@<TRIPOS>FF_PBC
FORCE_FIELD_SETUP_FEATURE Force Field Setup information
v1.0  0 0.000000 0.000000 0.000000 0.000000 0.000000 0.000000 NONE 0 0 0 0 1 0 0 0 0 0 0 0 0
