@<TRIPOS>MOLECULE
MOL000066
   39    41     1     1     0
SMALL
GASTEIGER


@<TRIPOS>ATOM
      1 C           1.729374   -1.436305   -0.621371 C.3       1 <1>        -0.045999 
      2 C           2.395723   -0.170165   -0.032481 C.3       1 <1>        -0.049635 
      3 C           1.886642    0.927416   -0.984259 C.3       1 <1>        -0.040210 
      4 C           0.362731    0.609168   -1.058810 C.3       1 <1>        -0.028356 
      5 C          -0.377071    1.265345    0.154693 C.3       1 <1>        -0.028671 
      6 C          -1.909607    0.989418    0.217534 C.3       1 <1>        -0.031721 
      7 C          -2.471967    0.034245   -0.874444 C.3       1 <1>        -0.045745 
      8 C          -2.130556   -1.472912   -0.838722 C.3       1 <1>        -0.031447 
      9 C          -0.733820   -1.928629   -1.200851 C.2       1 <1>        -0.073235 
     10 C           0.414028   -0.937112   -1.307578 C.3       1 <1>        -0.016795 
     11 C          -1.002326    0.639213    1.431735 C.3       1 <1>        -0.028399 
     12 C          -0.520329   -3.231505   -1.436411 C.2       1 <1>        -0.099175 
     13 C           2.308450    2.354367   -0.544327 C.3       1 <1>        -0.062136 
     14 C          -1.147379    1.635885    2.617295 C.3       1 <1>        -0.059280 
     15 C          -0.733458   -0.806856    1.916895 C.3       1 <1>        -0.059280 
     16 H           1.577852   -2.193028    0.164514 H         1 <1>         0.027114 
     17 H           2.408069   -1.881811   -1.371036 H         1 <1>         0.027114 
     18 H           3.496633   -0.236827    0.000834 H         1 <1>         0.026812 
     19 H           2.019223    0.022117    0.986729 H         1 <1>         0.026812 
     20 H           2.334405    0.758886   -1.981269 H         1 <1>         0.030106 
     21 H          -0.030679    1.146283   -1.939685 H         1 <1>         0.031200 
     22 H          -0.231031    2.356407    0.211464 H         1 <1>         0.031180 
     23 H          -2.487188    1.925934    0.307419 H         1 <1>         0.030905 
     24 H          -3.566420    0.093580   -0.740634 H         1 <1>         0.027121 
     25 H          -2.263069    0.441462   -1.875929 H         1 <1>         0.027121 
     26 H          -2.435107   -1.898261    0.127657 H         1 <1>         0.031008 
     27 H          -2.784556   -1.943605   -1.592855 H         1 <1>         0.031008 
     28 H           0.603493   -0.995815   -2.395221 H         1 <1>         0.034836 
     29 H           0.459544   -3.617557   -1.715154 H         1 <1>         0.053449 
     30 H          -1.329216   -3.958483   -1.360704 H         1 <1>         0.053449 
     31 H           1.799002    3.104725   -1.167128 H         1 <1>         0.023250 
     32 H           3.394883    2.476879   -0.673537 H         1 <1>         0.023250 
     33 H           2.078954    2.541179    0.514652 H         1 <1>         0.023250 
     34 H          -1.939599    1.274960    3.290525 H         1 <1>         0.023516 
     35 H          -0.198017    1.672686    3.172680 H         1 <1>         0.023516 
     36 H          -1.399542    2.662122    2.309306 H         1 <1>         0.023516 
     37 H          -0.364513   -1.497447    1.168841 H         1 <1>         0.023516 
     38 H           0.023624   -0.779257    2.714391 H         1 <1>         0.023516 
     39 H          -1.661201   -1.209123    2.349698 H         1 <1>         0.023516 
@<TRIPOS>BOND
     1    1    2 1    
     2    1   10 1    
     3    1   16 1    
     4    1   17 1    
     5    2    3 1    
     6    2   18 1    
     7    2   19 1    
     8    3    4 1    
     9    3   13 1    
    10    3   20 1    
    11    4    5 1    
    12    4   10 1    
    13    4   21 1    
    14    5    6 1    
    15    5   11 1    
    16    5   22 1    
    17    6    7 1    
    18    6   11 1    
    19    6   23 1    
    20    7    8 1    
    21    7   24 1    
    22    7   25 1    
    23    8    9 1    
    24    8   26 1    
    25    8   27 1    
    26    9   10 1    
    27    9   12 2    
    28   10   28 1    
    29   11   14 1    
    30   11   15 1    
    31   12   29 1    
    32   12   30 1    
    33   13   31 1    
    34   13   32 1    
    35   13   33 1    
    36   14   34 1    
    37   14   35 1    
    38   14   36 1    
    39   15   37 1    
    40   15   38 1    
    41   15   39 1    
@<TRIPOS>SUBSTRUCTURE
     1 ****        1 TEMP              0 ****  ****    0 ROOT 
@<TRIPOS>NORMAL
@<TRIPOS>FF_PBC
FORCE_FIELD_SETUP_FEATURE Force Field Setup information
v1.0  0 0.000000 0.000000 0.000000 0.000000 0.000000 0.000000 NONE 0 0 0 0 1 0 0 0 0 0 0 0 0
