@<TRIPOS>MOLECULE
MOL000089
   14    14     1     1     0
SMALL
GASTEIGER


@<TRIPOS>ATOM
      1 C           0.264308   -1.086058    0.000000 C.ar      1 <1>         0.102184 
      2 O           0.937834   -2.310447   -0.000000 O.3       1 <1>        -0.357275 
      3 C           0.975518    0.120899   -0.000000 C.ar      1 <1>         0.102184 
      4 O           2.375197    0.082877    0.000000 O.3       1 <1>        -0.357275 
      5 C           0.278703    1.336391   -0.000000 C.ar      1 <1>        -0.029405 
      6 C          -1.119574    1.345094    0.000000 C.ar      1 <1>        -0.059167 
      7 C          -1.827014    0.139697    0.000000 C.ar      1 <1>        -0.059167 
      8 C          -1.132846   -1.073413    0.000000 C.ar      1 <1>        -0.029405 
      9 H           1.883113   -2.193471   -0.000000 H         1 <1>         0.217422 
     10 H           2.793892    0.936438    0.000000 H         1 <1>         0.217422 
     11 H           0.815650    2.279375   -0.000000 H         1 <1>         0.064403 
     12 H          -1.657095    2.288783    0.000000 H         1 <1>         0.061839 
     13 H          -2.912946    0.145194   -0.000000 H         1 <1>         0.061839 
     14 H          -1.674738   -2.013357    0.000000 H         1 <1>         0.064403 
@<TRIPOS>BOND
     1    1    2 1    
     2    1    3 ar   
     3    1    8 ar   
     4    2    9 1    
     5    3    4 1    
     6    3    5 ar   
     7    4   10 1    
     8    5    6 ar   
     9    5   11 1    
    10    6    7 ar   
    11    6   12 1    
    12    7    8 ar   
    13    7   13 1    
    14    8   14 1    
@<TRIPOS>SUBSTRUCTURE
     1 ****        1 TEMP              0 ****  ****    0 ROOT 
@<TRIPOS>NORMAL
@<TRIPOS>FF_PBC
FORCE_FIELD_SETUP_FEATURE Force Field Setup information
v1.0  0 0.000000 0.000000 0.000000 0.000000 0.000000 0.000000 NONE 0 0 0 0 1 0 0 0 0 0 0 0 0
