@<TRIPOS>MOLECULE
MOL000193
   39    40     1     1     0
SMALL
GASTEIGER


@<TRIPOS>ATOM
      1 C          -0.898143   -0.168349    0.665324 C.3       1 <1>        -0.029054 
      2 C           0.099632    1.022197    0.463343 C.3       1 <1>        -0.016326 
      3 C          -2.087981    0.839708    0.686472 C.3       1 <1>        -0.030957 
      4 C          -0.968277   -1.337657   -0.365606 C.3       1 <1>        -0.045500 
      5 C          -1.091772    2.018857    0.526903 C.3       1 <1>        -0.040797 
      6 C           1.004766    1.157843   -0.763416 C.2       1 <1>        -0.072939 
      7 C          -3.105144    0.749179   -0.486865 C.3       1 <1>        -0.059523 
      8 C          -2.834177    0.873433    2.051516 C.3       1 <1>        -0.059523 
      9 C           0.089178   -2.456606   -0.103128 C.3       1 <1>        -0.031719 
     10 C           2.512017    0.993561   -0.565012 C.3       1 <1>        -0.028282 
     11 C           0.551052    1.401488   -2.001338 C.2       1 <1>        -0.099165 
     12 C           1.446596   -1.801785   -0.066210 C.2       1 <1>        -0.076511 
     13 C           3.051535   -0.288345   -1.273407 C.3       1 <1>        -0.030830 
     14 C           1.904475   -1.258123   -1.202018 C.2       1 <1>        -0.084727 
     15 C           2.145908   -1.763282    1.277495 C.3       1 <1>        -0.043787 
     16 H          -0.785850   -0.616103    1.666898 H         1 <1>         0.031176 
     17 H           0.682486    1.168331    1.388172 H         1 <1>         0.034853 
     18 H          -1.955792   -1.818712   -0.281971 H         1 <1>         0.027130 
     19 H          -0.873455   -0.945816   -1.387967 H         1 <1>         0.027130 
     20 H          -1.057089    2.685732    1.404685 H         1 <1>         0.027630 
     21 H          -1.258585    2.625183   -0.374263 H         1 <1>         0.027630 
     22 H          -3.758199    1.634882   -0.469096 H         1 <1>         0.023508 
     23 H          -3.737805   -0.143925   -0.377131 H         1 <1>         0.023508 
     24 H          -2.616303    0.712354   -1.468617 H         1 <1>         0.023508 
     25 H          -2.136162    0.991827    2.894924 H         1 <1>         0.023508 
     26 H          -3.543776    1.714466    2.072156 H         1 <1>         0.023508 
     27 H          -3.392936   -0.064469    2.190941 H         1 <1>         0.023508 
     28 H          -0.134835   -2.962587    0.850088 H         1 <1>         0.030998 
     29 H           0.049724   -3.215467   -0.901784 H         1 <1>         0.030998 
     30 H           3.031565    1.879888   -0.964138 H         1 <1>         0.031295 
     31 H           2.771659    0.941266    0.502262 H         1 <1>         0.031295 
     32 H           1.246312    1.492999   -2.835010 H         1 <1>         0.053449 
     33 H          -0.499142    1.513157   -2.252715 H         1 <1>         0.053449 
     34 H           3.259952   -0.065074   -2.333126 H         1 <1>         0.031044 
     35 H           3.985031   -0.668297   -0.830708 H         1 <1>         0.031044 
     36 H           1.373765   -1.447684   -2.136822 H         1 <1>         0.057163 
     37 H           3.171052   -1.375303    1.233005 H         1 <1>         0.027436 
     38 H           1.579748   -1.151576    1.992456 H         1 <1>         0.027436 
     39 H           2.208804   -2.787932    1.673374 H         1 <1>         0.027436 
@<TRIPOS>BOND
     1    1    2 1    
     2    1    3 1    
     3    1    4 1    
     4    1   16 1    
     5    2    5 1    
     6    2    6 1    
     7    2   17 1    
     8    3    5 1    
     9    3    7 1    
    10    3    8 1    
    11    4    9 1    
    12    4   18 1    
    13    4   19 1    
    14    5   20 1    
    15    5   21 1    
    16    6   10 1    
    17    6   11 2    
    18    7   22 1    
    19    7   23 1    
    20    7   24 1    
    21    8   25 1    
    22    8   26 1    
    23    8   27 1    
    24    9   12 1    
    25    9   28 1    
    26    9   29 1    
    27   10   13 1    
    28   10   30 1    
    29   10   31 1    
    30   11   32 1    
    31   11   33 1    
    32   12   14 2    
    33   12   15 1    
    34   13   14 1    
    35   13   34 1    
    36   13   35 1    
    37   14   36 1    
    38   15   37 1    
    39   15   38 1    
    40   15   39 1    
@<TRIPOS>SUBSTRUCTURE
     1 ****        1 TEMP              0 ****  ****    0 ROOT 
@<TRIPOS>NORMAL
@<TRIPOS>FF_PBC
FORCE_FIELD_SETUP_FEATURE Force Field Setup information
v1.0  0 0.000000 0.000000 0.000000 0.000000 0.000000 0.000000 NONE 0 0 0 0 1 0 0 0 0 0 0 0 0
