@<TRIPOS>MOLECULE
MOL002031
   15    15     1     1     0
SMALL
GASTEIGER


@<TRIPOS>ATOM
      1 C           0.451751    0.578479   -0.153454 C.ar      1 <1>        -0.050446 
      2 C           1.005860   -0.752034    0.201950 C.ar      1 <1>        -0.058837 
      3 C           0.143422   -1.824214    0.486366 C.ar      1 <1>        -0.061510 
      4 C          -1.325075   -1.631509    0.432802 C.ar      1 <1>        -0.061742 
      5 C          -1.854324   -0.376277    0.097521 C.ar      1 <1>        -0.061510 
      6 C          -0.945135    0.755304   -0.202656 C.ar      1 <1>        -0.058837 
      7 C           1.377191    1.758310   -0.466499 C.3       1 <1>        -0.039709 
      8 H           2.079697   -0.901497    0.243402 H         1 <1>         0.062020 
      9 H           0.550261   -2.796394    0.746052 H         1 <1>         0.061766 
     10 H          -1.987820   -2.462215    0.653160 H         1 <1>         0.061758 
     11 H          -2.929125   -0.230849    0.057158 H         1 <1>         0.061766 
     12 H          -1.361678    1.723206   -0.461205 H         1 <1>         0.062020 
     13 H           2.436417    1.471606   -0.388274 H         1 <1>         0.027753 
     14 H           1.180824    2.112940   -1.489461 H         1 <1>         0.027753 
     15 H           1.177930    2.575043    0.243439 H         1 <1>         0.027753 
@<TRIPOS>BOND
     1    1    2 1    
     2    1    6 2    
     3    1    7 1    
     4    2    3 2    
     5    2    8 1    
     6    3    4 1    
     7    3    9 1    
     8    4    5 2    
     9    4   10 1    
    10    5    6 1    
    11    5   11 1    
    12    6   12 1    
    13    7   13 1    
    14    7   14 1    
    15    7   15 1    
@<TRIPOS>SUBSTRUCTURE
     1 ****        1 TEMP              0 ****  ****    0 ROOT 
@<TRIPOS>NORMAL
@<TRIPOS>FF_PBC
FORCE_FIELD_SETUP_FEATURE Force Field Setup information
v1.0  0 0.000000 0.000000 0.000000 0.000000 0.000000 0.000000 NONE 0 0 0 0 1 0 0 0 0 0 0 0 0
