@<TRIPOS>MOLECULE
MOL010215
   29    28     1     1     0
SMALL
GASTEIGER


@<TRIPOS>ATOM
      1 C           0.019921   -0.216448   -0.000004 C.3       1 <1>        -0.052591 
      2 C          -1.333164    0.541766    0.113539 C.3       1 <1>        -0.050700 
      3 C           1.212110    0.775652   -0.113651 C.3       1 <1>        -0.050700 
      4 C          -2.583900   -0.386588    0.045106 C.3       1 <1>        -0.046721 
      5 C           2.611055    0.090746   -0.045156 C.3       1 <1>        -0.046721 
      6 C          -2.614972   -1.425297    1.201359 C.3       1 <1>        -0.062665 
      7 C          -3.878897    0.473682    0.078815 C.3       1 <1>        -0.062665 
      8 C           2.830926   -0.925061   -1.201237 C.3       1 <1>        -0.062665 
      9 C           3.727668    1.172566   -0.078886 C.3       1 <1>        -0.062665 
     10 H           0.176756   -0.845397    0.889963 H         1 <1>         0.026545 
     11 H          -0.019711   -0.863504   -0.889865 H         1 <1>         0.026545 
     12 H          -1.392097    1.262182   -0.719094 H         1 <1>         0.026777 
     13 H          -1.352171    1.112022    1.056465 H         1 <1>         0.026777 
     14 H           1.126983    1.339762   -1.056613 H         1 <1>         0.026777 
     15 H           1.138777    1.494738    0.718887 H         1 <1>         0.026777 
     16 H          -2.567644   -0.934859   -0.913612 H         1 <1>         0.029548 
     17 H           2.694991   -0.451241    0.913709 H         1 <1>         0.029548 
     18 H          -3.554113   -1.999520    1.174632 H         1 <1>         0.023233 
     19 H          -1.787250   -2.144466    1.115886 H         1 <1>         0.023233 
     20 H          -2.545158   -0.916718    2.175051 H         1 <1>         0.023233 
     21 H          -4.771816   -0.164670   -0.010314 H         1 <1>         0.023233 
     22 H          -3.889730    1.192794   -0.755144 H         1 <1>         0.023233 
     23 H          -3.942850    1.033457    1.024628 H         1 <1>         0.023233 
     24 H           3.858970   -1.318529   -1.174454 H         1 <1>         0.023233 
     25 H           2.148089   -1.782993   -1.115683 H         1 <1>         0.023233 
     26 H           2.669595   -0.437777   -2.174951 H         1 <1>         0.023233 
     27 H           4.721950    0.707610    0.010257 H         1 <1>         0.023233 
     28 H           3.607283    1.881663    0.755016 H         1 <1>         0.023233 
     29 H           3.688500    1.734526   -1.024745 H         1 <1>         0.023233 
@<TRIPOS>BOND
     1    1    2 1    
     2    1    3 1    
     3    1   10 1    
     4    1   11 1    
     5    2    4 1    
     6    2   12 1    
     7    2   13 1    
     8    3    5 1    
     9    3   14 1    
    10    3   15 1    
    11    4    6 1    
    12    4    7 1    
    13    4   16 1    
    14    5    8 1    
    15    5    9 1    
    16    5   17 1    
    17    6   18 1    
    18    6   19 1    
    19    6   20 1    
    20    7   21 1    
    21    7   22 1    
    22    7   23 1    
    23    8   24 1    
    24    8   25 1    
    25    8   26 1    
    26    9   27 1    
    27    9   28 1    
    28    9   29 1    
@<TRIPOS>SUBSTRUCTURE
     1 ****        1 TEMP              0 ****  ****    0 ROOT 
@<TRIPOS>NORMAL
@<TRIPOS>FF_PBC
FORCE_FIELD_SETUP_FEATURE Force Field Setup information
v1.0  0 0.000000 0.000000 0.000000 0.000000 0.000000 0.000000 NONE 0 0 0 0 1 0 0 0 0 0 0 0 0
