@<TRIPOS>MOLECULE
MOL002365
   25    25     1     1     0
SMALL
GASTEIGER


@<TRIPOS>ATOM
      1 C          -1.520050    0.728744   -0.401203 C.2       1 <1>        -0.011933 
      2 C          -1.481630   -0.599178   -0.574360 C.2       1 <1>        -0.077224 
      3 C          -0.240210   -1.323849   -1.030532 C.3       1 <1>        -0.027204 
      4 C           1.073145   -0.556848   -0.713128 C.3       1 <1>        -0.009991 
      5 C           0.951493    0.918089   -1.175659 C.3       1 <1>         0.016888 
      6 C          -0.321267    1.544303   -0.680778 C.2       1 <1>         0.159240 
      7 O          -0.359531    2.751937   -0.508743 O.2       1 <1>        -0.292394 
      8 C          -2.771064    1.426742    0.077880 C.3       1 <1>        -0.036707 
      9 C           1.518651   -0.665349    0.741597 C.2       1 <1>        -0.075911 
     10 C           2.763750   -1.048465    1.063160 C.2       1 <1>        -0.099426 
     11 C           0.516322   -0.323921    1.826037 C.3       1 <1>        -0.043757 
     12 H          -2.371655   -1.202395   -0.389882 H         1 <1>         0.057586 
     13 H          -0.189744   -2.318942   -0.559620 H         1 <1>         0.031334 
     14 H          -0.342869   -1.466350   -2.118794 H         1 <1>         0.031334 
     15 H           1.858044   -1.017415   -1.339102 H         1 <1>         0.035253 
     16 H           1.821514    1.487639   -0.810608 H         1 <1>         0.035087 
     17 H           0.928898    0.982955   -2.274814 H         1 <1>         0.035087 
     18 H          -3.601387    0.731872    0.278719 H         1 <1>         0.027849 
     19 H          -2.544076    1.971089    1.007358 H         1 <1>         0.027849 
     20 H          -3.096934    2.148912   -0.686243 H         1 <1>         0.027849 
     21 H           3.088326   -1.128430    2.099485 H         1 <1>         0.053440 
     22 H           3.509987   -1.295693    0.309089 H         1 <1>         0.053440 
     23 H           0.201429    0.725584    1.747931 H         1 <1>         0.027436 
     24 H          -0.366753   -0.974596    1.758644 H         1 <1>         0.027436 
     25 H           0.938902   -0.459819    2.833367 H         1 <1>         0.027436 
@<TRIPOS>BOND
     1    1    2 2    
     2    1    6 1    
     3    1    8 1    
     4    2    3 1    
     5    2   12 1    
     6    3    4 1    
     7    3   13 1    
     8    3   14 1    
     9    4    5 1    
    10    4    9 1    
    11    4   15 1    
    12    5    6 1    
    13    5   16 1    
    14    5   17 1    
    15    6    7 2    
    16    8   18 1    
    17    8   19 1    
    18    8   20 1    
    19    9   10 2    
    20    9   11 1    
    21   10   21 1    
    22   10   22 1    
    23   11   23 1    
    24   11   24 1    
    25   11   25 1    
@<TRIPOS>SUBSTRUCTURE
     1 ****        1 TEMP              0 ****  ****    0 ROOT 
@<TRIPOS>NORMAL
@<TRIPOS>FF_PBC
FORCE_FIELD_SETUP_FEATURE Force Field Setup information
v1.0  0 0.000000 0.000000 0.000000 0.000000 0.000000 0.000000 NONE 0 0 0 0 1 0 0 0 0 0 0 0 0
