@<TRIPOS>MOLECULE
MOL002897
   43    47     1     1     0
SMALL
GASTEIGER


@<TRIPOS>ATOM
      1 O           1.236877   -5.463293   -0.058200 O.3       1 <1>        -0.314242 
      2 O          -0.783570   -6.684879   -0.334038 O.3       1 <1>        -0.315029 
      3 O          -1.957385    3.963972    0.944820 O.3       1 <1>        -0.345320 
      4 O           0.383773    5.265362    0.066741 O.3       1 <1>        -0.345332 
      5 N           1.289103   -1.154709    0.045361 N.ar      1 <1>        -0.196151 
      6 C           2.614015   -0.382459    0.179781 C.3       1 <1>         0.155046 
      7 C           0.121602   -0.469173   -0.026330 C.ar      1 <1>         0.215834 
      8 C           2.584173    0.850769   -0.755365 C.3       1 <1>         0.032989 
      9 C           0.142677    1.017926    0.058769 C.ar      1 <1>         0.052203 
     10 C           1.387735    1.713124   -0.352060 C.ar      1 <1>        -0.025366 
     11 C           0.151570   -3.190285   -0.123295 C.ar      1 <1>         0.078307 
     12 C           1.296824   -2.501372    0.013332 C.ar      1 <1>         0.182046 
     13 C          -1.144820   -2.485177   -0.244441 C.ar      1 <1>        -0.003341 
     14 C          -1.156056   -1.212865   -0.204213 C.ar      1 <1>         0.018304 
     15 C          -0.913090    1.758818    0.496989 C.ar      1 <1>        -0.015453 
     16 C           1.454882    3.065625   -0.350935 C.ar      1 <1>        -0.024993 
     17 C           0.113151   -4.666811   -0.164733 C.ar      1 <1>         0.122357 
     18 C          -2.376701   -3.305070   -0.413650 C.ar      1 <1>        -0.051028 
     19 C          -0.846892    3.238757    0.508807 C.ar      1 <1>         0.106434 
     20 C           0.293300    3.872410    0.086168 C.ar      1 <1>         0.105952 
     21 C          -0.966828   -5.316163   -0.309603 C.ar      1 <1>         0.109844 
     22 C          -2.292117   -4.667982   -0.446028 C.ar      1 <1>        -0.028433 
     23 C           0.582626   -6.744535    0.159282 C.3       1 <1>         0.160060 
     24 C          -1.796516    4.614724    2.216255 C.3       1 <1>         0.043136 
     25 C          -0.380237    5.904800   -0.969151 C.3       1 <1>         0.043136 
     26 H           3.486530   -1.000895   -0.092469 H         1 <1>         0.103387 
     27 H           2.738185   -0.058409    1.227068 H         1 <1>         0.103387 
     28 H           3.530622    1.409769   -0.669625 H         1 <1>         0.037507 
     29 H           2.452350    0.531709   -1.801370 H         1 <1>         0.037507 
     30 H           2.226937   -3.057665    0.099306 H         1 <1>         0.138361 
     31 H          -2.095254   -0.682508   -0.310495 H         1 <1>         0.068959 
     32 H          -1.827685    1.297235    0.847278 H         1 <1>         0.065221 
     33 H           2.357734    3.580281   -0.661597 H         1 <1>         0.064707 
     34 H          -3.346923   -2.826727   -0.512199 H         1 <1>         0.062448 
     35 H          -3.179300   -5.280513   -0.569713 H         1 <1>         0.064431 
     36 H           0.536079   -6.920878    1.247921 H         1 <1>         0.087950 
     37 H           1.144701   -7.572450   -0.300044 H         1 <1>         0.087950 
     38 H          -2.736440    5.133035    2.456188 H         1 <1>         0.052871 
     39 H          -1.590775    3.874516    3.004834 H         1 <1>         0.052871 
     40 H          -0.984918    5.357622    2.195469 H         1 <1>         0.052871 
     41 H          -0.218066    6.990086   -0.893511 H         1 <1>         0.052871 
     42 H          -0.043755    5.565933   -1.961317 H         1 <1>         0.052871 
     43 H          -1.457272    5.704422   -0.862685 H         1 <1>         0.052871 
@<TRIPOS>BOND
     1   17    1 1    
     2    1   23 1    
     3    2   21 1    
     4   23    2 1    
     5   19    3 1    
     6    3   24 1    
     7   20    4 1    
     8    4   25 1    
     9    6    5 1    
    10    7    5 2    
    11    5   12 1    
    12    8    6 1    
    13    6   26 1    
    14    6   27 1    
    15    9    7 1    
    16    7   14 1    
    17   10    8 1    
    18    8   28 1    
    19    8   29 1    
    20   10    9 1    
    21    9   15 2    
    22   16   10 2    
    23   12   11 2    
    24   13   11 1    
    25   11   17 1    
    26   12   30 1    
    27   14   13 2    
    28   13   18 1    
    29   14   31 1    
    30   15   19 1    
    31   15   32 1    
    32   16   20 1    
    33   16   33 1    
    34   17   21 2    
    35   18   22 2    
    36   18   34 1    
    37   19   20 2    
    38   21   22 1    
    39   22   35 1    
    40   23   36 1    
    41   23   37 1    
    42   24   38 1    
    43   24   39 1    
    44   24   40 1    
    45   25   41 1    
    46   25   42 1    
    47   25   43 1    
@<TRIPOS>SUBSTRUCTURE
     1 ****        5 TEMP              0 ****  ****    0 ROOT 
@<TRIPOS>NORMAL
@<TRIPOS>FF_PBC
FORCE_FIELD_SETUP_FEATURE Force Field Setup information
v1.0  0 0.000000 0.000000 0.000000 0.000000 0.000000 0.000000 NONE 0 0 0 0 1 0 0 0 0 0 0 0 0
