@<TRIPOS>MOLECULE
MOL002285
   29    29     1     1     0
SMALL
GASTEIGER


@<TRIPOS>ATOM
      1 C           0.768626    3.723406   -0.706973 C.ar      1 <1>         0.132457 
      2 C           1.506653    2.461926   -0.455310 C.ar      1 <1>         0.105520 
      3 C           0.819100    1.293504   -0.217720 C.ar      1 <1>        -0.016369 
      4 C          -0.673173    1.256550   -0.187663 C.ar      1 <1>         0.051495 
      5 C          -1.318809    2.469357   -0.419606 C.ar      1 <1>        -0.016369 
      6 C          -0.582067    3.725083   -0.689850 C.ar      1 <1>         0.105520 
      7 O          -2.773647    0.236942   -0.087013 O.2       1 <1>        -0.259223 
      8 C          -1.576922    0.051430    0.062568 C.2       1 <1>         0.294052 
      9 O          -1.301268    4.900126   -0.926100 O.3       1 <1>        -0.357199 
     10 O           1.456310    4.911939   -0.964329 O.3       1 <1>        -0.355395 
     11 O           2.906983    2.496467   -0.471239 O.3       1 <1>        -0.357199 
     12 O          -1.322158   -1.219006    0.434711 O.3       1 <1>        -0.308775 
     13 C           0.025992   -1.660054    0.639467 C.3       1 <1>         0.085442 
     14 C          -0.022443   -3.130806    1.124295 C.3       1 <1>         0.102019 
     15 C          -0.749780   -4.047893    0.104782 C.3       1 <1>         0.072312 
     16 O           1.328237   -3.589718    1.317431 O.3       1 <1>        -0.387224 
     17 O          -0.729199   -5.393449    0.619024 O.3       1 <1>        -0.392387 
     18 H           1.413258    0.412032   -0.059839 H         1 <1>         0.065181 
     19 H          -2.400924    2.542509   -0.413169 H         1 <1>         0.065181 
     20 H          -0.734388    5.646328   -1.097653 H         1 <1>         0.217423 
     21 H           2.398424    4.774438   -0.961556 H         1 <1>         0.217501 
     22 H           3.343748    1.706108   -0.171092 H         1 <1>         0.217423 
     23 H           0.529160   -1.076379    1.426442 H         1 <1>         0.059251 
     24 H           0.593383   -1.655861   -0.304110 H         1 <1>         0.059251 
     25 H          -0.574201   -3.168378    2.081095 H         1 <1>         0.063932 
     26 H          -0.222544   -4.003349   -0.863114 H         1 <1>         0.058350 
     27 H          -1.789862   -3.705425   -0.036168 H         1 <1>         0.058350 
     28 H           1.347566   -4.501644    1.595598 H         1 <1>         0.209975 
     29 H          -1.152136   -6.021526    0.040068 H         1 <1>         0.209508 
@<TRIPOS>BOND
     1    1    2 1    
     2    1    6 2    
     3    1   10 1    
     4    2    3 2    
     5    2   11 1    
     6    3    4 1    
     7    3   18 1    
     8    4    5 2    
     9    4    8 1    
    10    5    6 1    
    11    5   19 1    
    12    6    9 1    
    13    8    7 2    
    14    8   12 1    
    15    9   20 1    
    16   10   21 1    
    17   11   22 1    
    18   12   13 1    
    19   13   14 1    
    20   13   23 1    
    21   13   24 1    
    22   14   15 1    
    23   14   16 1    
    24   14   25 1    
    25   15   17 1    
    26   15   26 1    
    27   15   27 1    
    28   16   28 1    
    29   17   29 1    
@<TRIPOS>SUBSTRUCTURE
     1 ****        1 TEMP              0 ****  ****    0 ROOT 
@<TRIPOS>NORMAL
@<TRIPOS>FF_PBC
FORCE_FIELD_SETUP_FEATURE Force Field Setup information
v1.0  0 0.000000 0.000000 0.000000 0.000000 0.000000 0.000000 NONE 0 0 0 0 1 0 0 0 0 0 0 0 0
