@<TRIPOS>MOLECULE
MOL004585
   33    32     1     1     0
SMALL
GASTEIGER


@<TRIPOS>ATOM
      1 C          -1.067439    1.005285   -0.000162 C.3       1 <1>        -0.034468 
      2 C           0.273091    0.222064    0.000093 C.3       1 <1>        -0.049607 
      3 C          -0.847106    2.499848   -0.000093 C.2       1 <1>        -0.084006 
      4 C           0.037855   -1.313285   -0.000065 C.3       1 <1>        -0.052779 
      5 C          -1.871236    3.363117   -0.000027 C.2       1 <1>        -0.065593 
      6 C           1.384050   -2.088484    0.000152 C.3       1 <1>        -0.053056 
      7 C          -1.686266    4.829739    0.000025 C.2       1 <1>        -0.059033 
      8 C           1.156358   -3.624953   -0.000063 C.3       1 <1>        -0.053306 
      9 C          -2.711029    5.692229    0.000021 C.2       1 <1>        -0.022455 
     10 C           2.505329   -4.394855    0.000147 C.3       1 <1>        -0.055911 
     11 C          -2.536430    7.156543    0.000066 C.2       1 <1>         0.143100 
     12 C           2.280420   -5.929342   -0.000086 C.3       1 <1>        -0.065276 
     13 O          -3.515374    7.884899    0.000055 O.2       1 <1>        -0.296320 
     14 H          -1.651357    0.733877   -0.894423 H         1 <1>         0.030741 
     15 H          -1.651743    0.733809    0.893825 H         1 <1>         0.030741 
     16 H           0.854285    0.502594    0.894271 H         1 <1>         0.026822 
     17 H           0.854685    0.502703   -0.893793 H         1 <1>         0.026822 
     18 H           0.173676    2.884322   -0.000109 H         1 <1>         0.057204 
     19 H          -0.544262   -1.593028   -0.893604 H         1 <1>         0.026538 
     20 H          -0.544636   -1.593162    0.893180 H         1 <1>         0.026538 
     21 H          -2.886385    2.963768   -0.000017 H         1 <1>         0.061449 
     22 H           1.965646   -1.807462    0.893605 H         1 <1>         0.026528 
     23 H           1.966044   -1.807277   -0.892990 H         1 <1>         0.026528 
     24 H          -0.668789    5.222636    0.000062 H         1 <1>         0.061844 
     25 H           0.575894   -3.908024   -0.893614 H         1 <1>         0.026520 
     26 H           0.575496   -3.908218    0.893158 H         1 <1>         0.026520 
     27 H          -3.735228    5.318360   -0.000016 H         1 <1>         0.064938 
     28 H           3.088929   -4.116965    0.893768 H         1 <1>         0.026265 
     29 H           3.089333   -4.116754   -0.893147 H         1 <1>         0.026265 
     30 H          -1.545935    7.610793    0.000108 H         1 <1>         0.107515 
     31 H           3.248870   -6.454300    0.000073 H         1 <1>         0.022978 
     32 H           1.716733   -6.235032   -0.895318 H         1 <1>         0.022978 
     33 H           1.716322   -6.235244    0.894815 H         1 <1>         0.022978 
@<TRIPOS>BOND
     1    1    2 1    
     2    1    3 1    
     3    1   14 1    
     4    1   15 1    
     5    2    4 1    
     6    2   16 1    
     7    2   17 1    
     8    3    5 2    
     9    3   18 1    
    10    4    6 1    
    11    4   19 1    
    12    4   20 1    
    13    5    7 1    
    14    5   21 1    
    15    6    8 1    
    16    6   22 1    
    17    6   23 1    
    18    7    9 2    
    19    7   24 1    
    20    8   10 1    
    21    8   25 1    
    22    8   26 1    
    23    9   11 1    
    24    9   27 1    
    25   10   12 1    
    26   10   28 1    
    27   10   29 1    
    28   11   13 2    
    29   11   30 1    
    30   12   31 1    
    31   12   32 1    
    32   12   33 1    
@<TRIPOS>SUBSTRUCTURE
     1 ****        1 TEMP              0 ****  ****    0 ROOT 
@<TRIPOS>NORMAL
@<TRIPOS>FF_PBC
FORCE_FIELD_SETUP_FEATURE Force Field Setup information
v1.0  0 0.000000 0.000000 0.000000 0.000000 0.000000 0.000000 NONE 0 0 0 0 1 0 0 0 0 0 0 0 0
