@<TRIPOS>MOLECULE
MOL008029
  131   130     1     1     0
SMALL
GASTEIGER


@<TRIPOS>ATOM
      1 O          -1.754520  -11.022424    0.265841 O.3       1 <1>        -0.393096 
      2 C          -0.355691  -10.788859    0.492684 C.3       1 <1>         0.065047 
      3 C          -0.097025   -9.617302    1.482249 C.3       1 <1>         0.074507 
      4 C          -0.484081   -9.892347    2.971193 C.3       1 <1>         0.101386 
      5 C          -1.993139   -9.743586    3.341597 C.3       1 <1>         0.082885 
      6 C          -2.549449   -8.312969    3.069272 C.3       1 <1>        -0.024082 
      7 C          -3.824613   -8.000725    3.901303 C.3       1 <1>        -0.047198 
      8 C          -4.277481   -6.529172    3.714521 C.3       1 <1>        -0.034679 
      9 C          -5.477891   -6.266747    4.593481 C.2       1 <1>        -0.087931 
     10 C          -5.376799   -5.675416    5.791942 C.2       1 <1>        -0.087932 
     11 C          -6.560660   -5.404403    6.690578 C.3       1 <1>        -0.034761 
     12 C          -6.584053   -3.910344    7.113058 C.3       1 <1>        -0.049616 
     13 C          -7.768783   -3.612944    8.071800 C.3       1 <1>        -0.052779 
     14 C          -7.772288   -2.132339    8.543556 C.3       1 <1>        -0.053048 
     15 C          -8.954390   -1.859903    9.515980 C.3       1 <1>        -0.053057 
     16 C          -8.955389   -0.396963   10.041249 C.3       1 <1>        -0.053065 
     17 C         -10.130566   -0.147722   11.028777 C.3       1 <1>        -0.053306 
     18 C         -10.113809    1.308368   11.570839 C.3       1 <1>        -0.055911 
     19 C         -11.275056    1.570564   12.566563 C.3       1 <1>        -0.065276 
     20 N           1.328927   -9.274664    1.470174 N.am      1 <1>        -0.305576 
     21 O           0.005137  -11.165177    3.434119 O.3       1 <1>        -0.387320 
     22 O          -2.761501  -10.752202    2.656004 O.3       1 <1>        -0.389174 
     23 C           1.719748   -7.997135    1.692124 C.2       1 <1>         0.242010 
     24 C           3.204542   -7.693100    1.760108 C.3       1 <1>         0.130868 
     25 C           3.512896   -6.169410    1.796714 C.3       1 <1>        -0.018274 
     26 C           3.220491   -5.481643    0.433987 C.3       1 <1>        -0.050258 
     27 C           3.422690   -3.943743    0.520358 C.3       1 <1>        -0.052965 
     28 C           3.282204   -3.278089   -0.876098 C.3       1 <1>        -0.053056 
     29 C           3.412744   -1.733370   -0.784618 C.3       1 <1>        -0.053057 
     30 C           3.428725   -1.089891   -2.196964 C.3       1 <1>        -0.053057 
     31 C           3.508496    0.456816   -2.105014 C.3       1 <1>        -0.053057 
     32 C           3.669120    1.092111   -3.511898 C.3       1 <1>        -0.053057 
     33 C           3.700819    2.641427   -3.421820 C.3       1 <1>        -0.053057 
     34 C           3.984444    3.274257   -4.811062 C.3       1 <1>        -0.053057 
     35 C           3.966877    4.824198   -4.733874 C.3       1 <1>        -0.053057 
     36 C           4.353957    5.460699   -6.096039 C.3       1 <1>        -0.053057 
     37 C           4.286742    7.011156   -6.028154 C.3       1 <1>        -0.053057 
     38 C           4.753452    7.655476   -7.361605 C.3       1 <1>        -0.053057 
     39 C           4.643124    9.204917   -7.315362 C.3       1 <1>        -0.053057 
     40 C           5.168098    9.847452   -8.629352 C.3       1 <1>        -0.053057 
     41 C           5.020187   11.393452   -8.607301 C.3       1 <1>        -0.053057 
     42 C           5.578189   12.038073   -9.905634 C.3       1 <1>        -0.053057 
     43 C           5.392762   13.580359   -9.892753 C.3       1 <1>        -0.053065 
     44 C           5.967538   14.228633  -11.181346 C.3       1 <1>        -0.053306 
     45 C           5.766274   15.768980  -11.185936 C.3       1 <1>        -0.055911 
     46 C           6.354704   16.400318  -12.474631 C.3       1 <1>        -0.065276 
     47 O           0.915089   -7.094925    1.859769 O.2       1 <1>        -0.272971 
     48 O           3.784178   -8.337542    2.910818 O.3       1 <1>        -0.382571 
     49 H          -2.213118  -11.263782    1.065602 H         1 <1>         0.209477 
     50 H           0.153073  -11.710167    0.817017 H         1 <1>         0.057631 
     51 H           0.068586  -10.513140   -0.486058 H         1 <1>         0.057631 
     52 H          -0.680427   -8.768110    1.093082 H         1 <1>         0.054726 
     53 H           0.062225   -9.150878    3.576453 H         1 <1>         0.063834 
     54 H          -2.041249   -9.941906    4.428302 H         1 <1>         0.061953 
     55 H          -1.778777   -7.569313    3.330267 H         1 <1>         0.029096 
     56 H          -2.793522   -8.201132    2.000445 H         1 <1>         0.029096 
     57 H          -4.650658   -8.669471    3.608808 H         1 <1>         0.026902 
     58 H          -3.613473   -8.160049    4.971507 H         1 <1>         0.026902 
     59 H          -3.450997   -5.849497    3.979536 H         1 <1>         0.030733 
     60 H          -4.539691   -6.342277    2.661077 H         1 <1>         0.030733 
     61 H          -6.451087   -6.591282    4.222222 H         1 <1>         0.056896 
     62 H          -4.394486   -5.370508    6.156473 H         1 <1>         0.056896 
     63 H          -6.458711   -6.041327    7.583055 H         1 <1>         0.030732 
     64 H          -7.511165   -5.663349    6.194975 H         1 <1>         0.030732 
     65 H          -6.668459   -3.283667    6.210180 H         1 <1>         0.026822 
     66 H          -5.636528   -3.660792    7.617802 H         1 <1>         0.026822 
     67 H          -7.693015   -4.272336    8.951972 H         1 <1>         0.026538 
     68 H          -8.717220   -3.834840    7.556070 H         1 <1>         0.026538 
     69 H          -7.851473   -1.466890    7.668205 H         1 <1>         0.026529 
     70 H          -6.820993   -1.913388    9.056374 H         1 <1>         0.026529 
     71 H          -8.880999   -2.547330   10.374648 H         1 <1>         0.026528 
     72 H          -9.905419   -2.060141    8.995262 H         1 <1>         0.026528 
     73 H          -9.040124    0.296253    9.188142 H         1 <1>         0.026528 
     74 H          -8.000826   -0.196135   10.555164 H         1 <1>         0.026528 
     75 H         -10.052542   -0.849896   11.875047 H         1 <1>         0.026520 
     76 H         -11.087542   -0.334696   10.513929 H         1 <1>         0.026520 
     77 H         -10.198352    2.014808   10.728408 H         1 <1>         0.026265 
     78 H          -9.156885    1.498381   12.085000 H         1 <1>         0.026265 
     79 H         -11.230120    2.609426   12.930891 H         1 <1>         0.022978 
     80 H         -11.202178    0.893395   13.432557 H         1 <1>         0.022978 
     81 H         -12.248514    1.413307   12.076351 H         1 <1>         0.022978 
     82 H           2.004795  -10.009165    1.378944 H         1 <1>         0.149224 
     83 H          -0.514463  -11.888821    3.098802 H         1 <1>         0.209970 
     84 H          -3.678542  -10.764213    2.919566 H         1 <1>         0.209889 
     85 H           3.691888   -8.132184    0.875906 H         1 <1>         0.069005 
     86 H           4.580431   -6.034429    2.034317 H         1 <1>         0.029483 
     87 H           2.928576   -5.692050    2.599859 H         1 <1>         0.029483 
     88 H           2.186896   -5.686643    0.114509 H         1 <1>         0.026620 
     89 H           3.899912   -5.898371   -0.327292 H         1 <1>         0.026620 
     90 H           4.426214   -3.726312    0.921870 H         1 <1>         0.026530 
     91 H           2.676001   -3.517245    1.210843 H         1 <1>         0.026530 
     92 H           2.301643   -3.532709   -1.313558 H         1 <1>         0.026528 
     93 H           4.069234   -3.672945   -1.539916 H         1 <1>         0.026528 
     94 H           4.348254   -1.473130   -0.262094 H         1 <1>         0.026528 
     95 H           2.568603   -1.330346   -0.200461 H         1 <1>         0.026528 
     96 H           2.518456   -1.377185   -2.748252 H         1 <1>         0.026528 
     97 H           4.301857   -1.467038   -2.755554 H         1 <1>         0.026528 
     98 H           4.372838    0.743266   -1.483270 H         1 <1>         0.026528 
     99 H           2.594385    0.842098   -1.623012 H         1 <1>         0.026528 
    100 H           2.831924    0.781400   -4.159397 H         1 <1>         0.026528 
    101 H           4.607749    0.733145   -3.966210 H         1 <1>         0.026528 
    102 H           4.488614    2.953557   -2.715103 H         1 <1>         0.026528 
    103 H           2.731966    3.003730   -3.038325 H         1 <1>         0.026528 
    104 H           3.224665    2.935137   -5.534255 H         1 <1>         0.026528 
    105 H           4.972184    2.935673   -5.166007 H         1 <1>         0.026528 
    106 H           4.680011    5.159971   -3.962865 H         1 <1>         0.026528 
    107 H           2.959116    5.161007   -4.439251 H         1 <1>         0.026528 
    108 H           3.668602    5.098728   -6.881010 H         1 <1>         0.026528 
    109 H           5.377481    5.147736   -6.362772 H         1 <1>         0.026528 
    110 H           4.930861    7.369163   -5.208031 H         1 <1>         0.026528 
    111 H           3.250148    7.319391   -5.812321 H         1 <1>         0.026528 
    112 H           4.134946    7.273139   -8.190674 H         1 <1>         0.026528 
    113 H           5.801291    7.370560   -7.553752 H         1 <1>         0.026528 
    114 H           5.229385    9.589759   -6.463762 H         1 <1>         0.026528 
    115 H           3.588526    9.489633   -7.162186 H         1 <1>         0.026528 
    116 H           4.604400    9.440738   -9.485092 H         1 <1>         0.026528 
    117 H           6.230908    9.584412   -8.761378 H         1 <1>         0.026528 
    118 H           5.562743   11.800908   -7.738354 H         1 <1>         0.026528 
    119 H           3.953749   11.653152   -8.500299 H         1 <1>         0.026528 
    120 H           5.053974   11.615676  -10.778810 H         1 <1>         0.026528 
    121 H           6.650250   11.798623   -9.999940 H         1 <1>         0.026528 
    122 H           5.905034   14.004289   -9.013499 H         1 <1>         0.026528 
    123 H           4.319422   13.818044   -9.813593 H         1 <1>         0.026528 
    124 H           5.466057   13.795437  -12.062448 H         1 <1>         0.026520 
    125 H           7.044410   14.002855  -11.252558 H         1 <1>         0.026520 
    126 H           6.263205   16.211710  -10.306128 H         1 <1>         0.026265 
    127 H           4.689511   16.002556  -11.127132 H         1 <1>         0.026265 
    128 H           6.201897   17.491100  -12.467509 H         1 <1>         0.022978 
    129 H           5.860850   15.981604  -13.366061 H         1 <1>         0.022978 
    130 H           7.435499   16.197055  -12.541555 H         1 <1>         0.022978 
    131 H           3.403540   -8.034237    3.729405 H         1 <1>         0.210426 
@<TRIPOS>BOND
     1    1    2 1    
     2    1   49 1    
     3    2    3 1    
     4    2   50 1    
     5    2   51 1    
     6    3    4 1    
     7    3   20 1    
     8    3   52 1    
     9    4    5 1    
    10    4   21 1    
    11    4   53 1    
    12    5    6 1    
    13    5   22 1    
    14    5   54 1    
    15    6    7 1    
    16    6   55 1    
    17    6   56 1    
    18    7    8 1    
    19    7   57 1    
    20    7   58 1    
    21    8    9 1    
    22    8   59 1    
    23    8   60 1    
    24    9   10 2    
    25    9   61 1    
    26   10   11 1    
    27   10   62 1    
    28   11   12 1    
    29   11   63 1    
    30   11   64 1    
    31   12   13 1    
    32   12   65 1    
    33   12   66 1    
    34   13   14 1    
    35   13   67 1    
    36   13   68 1    
    37   14   15 1    
    38   14   69 1    
    39   14   70 1    
    40   15   16 1    
    41   15   71 1    
    42   15   72 1    
    43   16   17 1    
    44   16   73 1    
    45   16   74 1    
    46   17   18 1    
    47   17   75 1    
    48   17   76 1    
    49   18   19 1    
    50   18   77 1    
    51   18   78 1    
    52   19   79 1    
    53   19   80 1    
    54   19   81 1    
    55   20   23 1    
    56   20   82 1    
    57   21   83 1    
    58   22   84 1    
    59   23   24 1    
    60   23   47 2    
    61   24   25 1    
    62   24   48 1    
    63   24   85 1    
    64   25   26 1    
    65   25   86 1    
    66   25   87 1    
    67   26   27 1    
    68   26   88 1    
    69   26   89 1    
    70   27   28 1    
    71   27   90 1    
    72   27   91 1    
    73   28   29 1    
    74   28   92 1    
    75   28   93 1    
    76   29   30 1    
    77   29   94 1    
    78   29   95 1    
    79   30   31 1    
    80   30   96 1    
    81   30   97 1    
    82   31   32 1    
    83   31   98 1    
    84   31   99 1    
    85   32   33 1    
    86   32  100 1    
    87   32  101 1    
    88   33   34 1    
    89   33  102 1    
    90   33  103 1    
    91   34   35 1    
    92   34  104 1    
    93   34  105 1    
    94   35   36 1    
    95   35  106 1    
    96   35  107 1    
    97   36   37 1    
    98   36  108 1    
    99   36  109 1    
   100   37   38 1    
   101   37  110 1    
   102   37  111 1    
   103   38   39 1    
   104   38  112 1    
   105   38  113 1    
   106   39   40 1    
   107   39  114 1    
   108   39  115 1    
   109   40   41 1    
   110   40  116 1    
   111   40  117 1    
   112   41   42 1    
   113   41  118 1    
   114   41  119 1    
   115   42   43 1    
   116   42  120 1    
   117   42  121 1    
   118   43   44 1    
   119   43  122 1    
   120   43  123 1    
   121   44   45 1    
   122   44  124 1    
   123   44  125 1    
   124   45   46 1    
   125   45  126 1    
   126   45  127 1    
   127   46  128 1    
   128   46  129 1    
   129   46  130 1    
   130   48  131 1    
@<TRIPOS>SUBSTRUCTURE
     1 ****        1 TEMP              0 ****  ****    0 ROOT 
@<TRIPOS>NORMAL
@<TRIPOS>FF_PBC
FORCE_FIELD_SETUP_FEATURE Force Field Setup information
v1.0  0 0.000000 0.000000 0.000000 0.000000 0.000000 0.000000 NONE 0 0 0 0 1 0 0 0 0 0 0 0 0
