@<TRIPOS>MOLECULE
MOL003546
   38    40     1     1     0
SMALL
GASTEIGER


@<TRIPOS>ATOM
      1 O          -3.156242   -2.256124   -0.626965 O.2       1 <1>        -0.292356 
      2 C          -0.936545    0.727783   -0.674696 C.3       1 <1>        -0.015554 
      3 C          -2.013648    0.933875    0.422344 C.3       1 <1>        -0.020491 
      4 C          -2.256509   -0.081208   -0.726362 C.3       1 <1>         0.031066 
      5 C           0.348664   -0.157946   -0.569979 C.3       1 <1>        -0.004119 
      6 C           1.493277    0.650631    0.124092 C.3       1 <1>        -0.034470 
      7 C           0.179552   -1.470236    0.183968 C.2       1 <1>        -0.059791 
      8 C          -2.191065   -1.544893   -0.400982 C.2       1 <1>         0.159944 
      9 C          -2.891099    2.209029    0.308250 C.3       1 <1>        -0.058851 
     10 C          -1.825146    0.390739    1.864729 C.3       1 <1>        -0.058851 
     11 C           0.671960   -0.528384   -2.051301 C.3       1 <1>        -0.055295 
     12 C          -0.989019   -2.121138    0.207167 C.2       1 <1>        -0.019130 
     13 C           2.857012   -0.104081    0.075617 C.3       1 <1>        -0.049379 
     14 C           1.372739   -2.015380    0.945604 C.3       1 <1>        -0.030799 
     15 C           2.738720   -1.637272    0.325729 C.3       1 <1>        -0.049067 
     16 C           1.684295    2.106996   -0.393942 C.3       1 <1>        -0.061619 
     17 H          -0.913143    1.538713   -1.420864 H         1 <1>         0.032156 
     18 H          -2.915584    0.217157   -1.557115 H         1 <1>         0.038914 
     19 H           1.200583    0.755658    1.183386 H         1 <1>         0.030653 
     20 H          -3.866554    2.016064    0.779588 H         1 <1>         0.023527 
     21 H          -2.394177    3.033383    0.841186 H         1 <1>         0.023527 
     22 H          -3.062476    2.525121   -0.732022 H         1 <1>         0.023527 
     23 H          -0.949814   -0.245929    2.017881 H         1 <1>         0.023527 
     24 H          -1.717485    1.245287    2.548925 H         1 <1>         0.023527 
     25 H          -2.727089   -0.169847    2.152213 H         1 <1>         0.023527 
     26 H           1.553553   -1.168163   -2.161112 H         1 <1>         0.023829 
     27 H          -0.178759   -1.075740   -2.486466 H         1 <1>         0.023829 
     28 H           0.839837    0.366526   -2.667233 H         1 <1>         0.023829 
     29 H          -1.095090   -3.085283    0.703886 H         1 <1>         0.065209 
     30 H           3.515411    0.342389    0.840733 H         1 <1>         0.026821 
     31 H           3.343511    0.061647   -0.899766 H         1 <1>         0.026821 
     32 H           1.330625   -1.597981    1.964202 H         1 <1>         0.031027 
     33 H           1.316074   -3.112837    1.037243 H         1 <1>         0.031027 
     34 H           3.550018   -1.974316    0.994017 H         1 <1>         0.026839 
     35 H           2.858329   -2.206483   -0.609364 H         1 <1>         0.026839 
     36 H           2.521491    2.585394    0.138140 H         1 <1>         0.023268 
     37 H           1.914296    2.125140   -1.468486 H         1 <1>         0.023268 
     38 H           0.790593    2.722508   -0.211544 H         1 <1>         0.023268 
@<TRIPOS>BOND
     1    8    1 2    
     2    3    2 1    
     3    4    2 1    
     4    2    5 1    
     5    2   17 1    
     6    4    3 1    
     7    3    9 1    
     8    3   10 1    
     9    4    8 1    
    10    4   18 1    
    11    5    6 1    
    12    5    7 1    
    13    5   11 1    
    14    6   13 1    
    15    6   16 1    
    16    6   19 1    
    17    7   12 2    
    18    7   14 1    
    19    8   12 1    
    20    9   20 1    
    21    9   21 1    
    22    9   22 1    
    23   10   23 1    
    24   10   24 1    
    25   10   25 1    
    26   11   26 1    
    27   11   27 1    
    28   11   28 1    
    29   12   29 1    
    30   13   15 1    
    31   13   30 1    
    32   13   31 1    
    33   14   15 1    
    34   14   32 1    
    35   14   33 1    
    36   15   34 1    
    37   15   35 1    
    38   16   36 1    
    39   16   37 1    
    40   16   38 1    
@<TRIPOS>SUBSTRUCTURE
     1 ****        2 TEMP              0 ****  ****    0 ROOT 
@<TRIPOS>NORMAL
@<TRIPOS>FF_PBC
FORCE_FIELD_SETUP_FEATURE Force Field Setup information
v1.0  0 0.000000 0.000000 0.000000 0.000000 0.000000 0.000000 NONE 0 0 0 0 1 0 0 0 0 0 0 0 0
