@<TRIPOS>MOLECULE
MOL013435
   46    49     1     1     0
SMALL
GASTEIGER


@<TRIPOS>ATOM
      1 C          -5.184402   -0.770116   -2.157808 C.2       1 <1>         0.291587 
      2 C          -4.972342   -0.801548   -3.617742 C.2       1 <1>         0.010952 
      3 C          -3.749379   -0.773334   -4.154788 C.2       1 <1>        -0.046434 
      4 C          -2.569600   -0.683847   -3.217419 C.ar      1 <1>         0.006194 
      5 C          -2.846113   -0.664937   -1.764784 C.ar      1 <1>         0.099257 
      6 O          -4.160744   -0.726700   -1.296411 O.3       1 <1>        -0.273433 
      7 C          -1.789534   -0.585435   -0.839852 C.ar      1 <1>         0.016243 
      8 C          -0.387104   -0.473340   -1.330690 C.ar      1 <1>         0.082036 
      9 C          -0.134412   -0.496355   -2.716514 C.ar      1 <1>        -0.030690 
     10 C          -1.250524   -0.619108   -3.684896 C.ar      1 <1>        -0.049653 
     11 O          -6.321160   -0.787200   -1.715526 O.2       1 <1>        -0.259479 
     12 C          -2.179889   -0.619306    0.648618 C.3       1 <1>         0.006352 
     13 O          -1.497411   -0.960722    2.940131 O.3       1 <1>        -0.364987 
     14 C          -0.993303   -0.712788    1.643171 C.3       1 <1>         0.091947 
     15 C          -0.873384    0.288135    2.884936 C.3       1 <1>         0.090742 
     16 C           0.548640    0.406545    3.477651 C.3       1 <1>        -0.033610 
     17 C          -1.832587    1.499170    2.971179 C.3       1 <1>        -0.033610 
     18 O           0.652716   -0.341643   -0.400281 O.3       1 <1>        -0.341686 
     19 C           2.047034   -0.383385   -0.756936 C.3       1 <1>         0.083111 
     20 O           4.123989   -0.966803    0.349580 O.3       1 <1>        -0.362941 
     21 C           2.843959   -0.405747    0.570368 C.3       1 <1>         0.111494 
     22 C           4.227141    0.366352    0.752154 C.3       1 <1>         0.092702 
     23 C           4.657806    0.615001    2.215307 C.3       1 <1>        -0.033540 
     24 C           4.711884    1.346408   -0.340240 C.3       1 <1>        -0.033540 
     25 H          -5.854616   -0.851503   -4.256869 H         1 <1>         0.067748 
     26 H          -3.612895   -0.809623   -5.234682 H         1 <1>         0.062606 
     27 H           0.872161   -0.419875   -3.109008 H         1 <1>         0.064356 
     28 H          -1.044234   -0.651953   -4.751110 H         1 <1>         0.062503 
     29 H          -2.804507    0.264619    0.828666 H         1 <1>         0.034080 
     30 H          -2.803389   -1.512000    0.810707 H         1 <1>         0.034080 
     31 H          -0.283061   -1.542831    1.502726 H         1 <1>         0.062798 
     32 H           0.490968    0.786197    4.507793 H         1 <1>         0.025804 
     33 H           1.050447   -0.571210    3.499005 H         1 <1>         0.025804 
     34 H           1.137415    1.110049    2.870857 H         1 <1>         0.025804 
     35 H          -2.875307    1.159353    3.060930 H         1 <1>         0.025804 
     36 H          -1.601034    2.100531    3.862393 H         1 <1>         0.025804 
     37 H          -1.725882    2.132574    2.078220 H         1 <1>         0.025804 
     38 H           2.277421   -1.305135   -1.316079 H         1 <1>         0.059175 
     39 H           2.303189    0.503911   -1.353127 H         1 <1>         0.059175 
     40 H           2.412917   -0.976793    1.404999 H         1 <1>         0.064807 
     41 H           5.748795    0.505876    2.294556 H         1 <1>         0.025805 
     42 H           4.375723    1.638266    2.502595 H         1 <1>         0.025805 
     43 H           4.180389   -0.094391    2.906078 H         1 <1>         0.025805 
     44 H           4.657739    0.905187   -1.345648 H         1 <1>         0.025805 
     45 H           4.103169    2.261801   -0.305663 H         1 <1>         0.025805 
     46 H           5.761906    1.607994   -0.142548 H         1 <1>         0.025805 
@<TRIPOS>BOND
     1    1    2 1    
     2    1    6 1    
     3    1   11 2    
     4    2    3 2    
     5    2   25 1    
     6    3    4 1    
     7    3   26 1    
     8    4    5 1    
     9    4   10 2    
    10    5    6 1    
    11    5    7 2    
    12    7    8 1    
    13    7   12 1    
    14    8    9 2    
    15    8   18 1    
    16    9   10 1    
    17    9   27 1    
    18   10   28 1    
    19   12   14 1    
    20   12   29 1    
    21   12   30 1    
    22   14   13 1    
    23   13   15 1    
    24   14   15 1    
    25   14   31 1    
    26   15   16 1    
    27   15   17 1    
    28   16   32 1    
    29   16   33 1    
    30   16   34 1    
    31   17   35 1    
    32   17   36 1    
    33   17   37 1    
    34   18   19 1    
    35   19   21 1    
    36   19   38 1    
    37   19   39 1    
    38   21   20 1    
    39   20   22 1    
    40   21   22 1    
    41   21   40 1    
    42   22   23 1    
    43   22   24 1    
    44   23   41 1    
    45   23   42 1    
    46   23   43 1    
    47   24   44 1    
    48   24   45 1    
    49   24   46 1    
@<TRIPOS>SUBSTRUCTURE
     1 ****        1 TEMP              0 ****  ****    0 ROOT 
@<TRIPOS>NORMAL
@<TRIPOS>FF_PBC
FORCE_FIELD_SETUP_FEATURE Force Field Setup information
v1.0  0 0.000000 0.000000 0.000000 0.000000 0.000000 0.000000 NONE 0 0 0 0 1 0 0 0 0 0 0 0 0
