@<TRIPOS>MOLECULE
MOL004972
   20    19     1     1     0
SMALL
GASTEIGER


@<TRIPOS>ATOM
      1 C           0.257370   -0.406504    0.410590 C.3       1 <1>        -0.044377 
      2 C           1.596367    0.325115    0.077049 C.3       1 <1>        -0.053321 
      3 C          -0.928260    0.593309    0.572535 C.3       1 <1>        -0.053321 
      4 C          -0.058785   -1.523548   -0.624415 C.3       1 <1>        -0.062432 
      5 C           1.609871    1.088763   -1.274971 C.3       1 <1>        -0.065034 
      6 C          -2.206208   -0.054659    1.171596 C.3       1 <1>        -0.065034 
      7 H           0.413653   -0.898926    1.387503 H         1 <1>         0.029796 
      8 H           1.824274    1.044267    0.882181 H         1 <1>         0.026521 
      9 H           2.412928   -0.416583    0.060955 H         1 <1>         0.026521 
     10 H          -0.616123    1.408777    1.246276 H         1 <1>         0.026521 
     11 H          -1.191711    1.036071   -0.400703 H         1 <1>         0.026521 
     12 H          -0.852785   -2.189643   -0.255361 H         1 <1>         0.023241 
     13 H           0.833310   -2.142233   -0.807018 H         1 <1>         0.023241 
     14 H          -0.389036   -1.093063   -1.581047 H         1 <1>         0.023241 
     15 H           2.597495    1.553763   -1.424273 H         1 <1>         0.022986 
     16 H           1.426248    0.408571   -2.119492 H         1 <1>         0.022986 
     17 H           0.856327    1.889633   -1.290195 H         1 <1>         0.022986 
     18 H          -2.965630    0.721141    1.360021 H         1 <1>         0.022986 
     19 H          -2.642957   -0.791965    0.482035 H         1 <1>         0.022986 
     20 H          -1.976345   -0.552286    2.126435 H         1 <1>         0.022986 
@<TRIPOS>BOND
     1    1    2 1    
     2    1    3 1    
     3    1    4 1    
     4    1    7 1    
     5    2    5 1    
     6    2    8 1    
     7    2    9 1    
     8    3    6 1    
     9    3   10 1    
    10    3   11 1    
    11    4   12 1    
    12    4   13 1    
    13    4   14 1    
    14    5   15 1    
    15    5   16 1    
    16    5   17 1    
    17    6   18 1    
    18    6   19 1    
    19    6   20 1    
@<TRIPOS>SUBSTRUCTURE
     1 ****        1 TEMP              0 ****  ****    0 ROOT 
@<TRIPOS>NORMAL
@<TRIPOS>FF_PBC
FORCE_FIELD_SETUP_FEATURE Force Field Setup information
v1.0  0 0.000000 0.000000 0.000000 0.000000 0.000000 0.000000 NONE 0 0 0 0 1 0 0 0 0 0 0 0 0
