@<TRIPOS>MOLECULE
MOL004654
   22    21     1     1     0
SMALL
GASTEIGER


@<TRIPOS>ATOM
      1 C          -2.678616   -3.303183    0.291377 C.3       1 <1>        -0.065267 
      2 C          -1.325290   -2.617906   -0.031490 C.3       1 <1>        -0.055633 
      3 C          -1.481217   -1.075202   -0.119167 C.3       1 <1>        -0.049864 
      4 C          -0.129619   -0.385121   -0.442275 C.3       1 <1>        -0.034698 
      5 C          -0.322861    1.111288   -0.531692 C.2       1 <1>        -0.085798 
      6 C           0.246751    1.977697    0.318068 C.2       1 <1>        -0.062873 
      7 C           0.058846    3.472105    0.236508 C.3       1 <1>         0.062389 
      8 O           1.363581    4.067686    0.131489 O.3       1 <1>        -0.391002 
      9 H          -2.546314   -4.395233    0.349777 H         1 <1>         0.022978 
     10 H          -3.069374   -2.945728    1.256913 H         1 <1>         0.022978 
     11 H          -3.418598   -3.081732   -0.493537 H         1 <1>         0.022978 
     12 H          -0.944618   -3.005180   -0.991409 H         1 <1>         0.026274 
     13 H          -0.596457   -2.871854    0.756332 H         1 <1>         0.026274 
     14 H          -1.859684   -0.688618    0.841723 H         1 <1>         0.026813 
     15 H          -2.214843   -0.827138   -0.904149 H         1 <1>         0.026813 
     16 H           0.253943   -0.745742   -1.410218 H         1 <1>         0.030733 
     17 H           0.607781   -0.649833    0.332591 H         1 <1>         0.030733 
     18 H          -0.962860    1.480076   -1.334376 H         1 <1>         0.056966 
     19 H           0.886356    1.614179    1.122940 H         1 <1>         0.059150 
     20 H          -0.561291    3.758511   -0.629646 H         1 <1>         0.060118 
     21 H          -0.446410    3.809738    1.156950 H         1 <1>         0.060118 
     22 H           1.339190    5.019388    0.094192 H         1 <1>         0.209823 
@<TRIPOS>BOND
     1    1    2 1    
     2    1    9 1    
     3    1   10 1    
     4    1   11 1    
     5    2    3 1    
     6    2   12 1    
     7    2   13 1    
     8    3    4 1    
     9    3   14 1    
    10    3   15 1    
    11    4    5 1    
    12    4   16 1    
    13    4   17 1    
    14    5    6 2    
    15    5   18 1    
    16    6    7 1    
    17    6   19 1    
    18    7    8 1    
    19    7   20 1    
    20    7   21 1    
    21    8   22 1    
@<TRIPOS>SUBSTRUCTURE
     1 ****        1 TEMP              0 ****  ****    0 ROOT 
@<TRIPOS>NORMAL
@<TRIPOS>FF_PBC
FORCE_FIELD_SETUP_FEATURE Force Field Setup information
v1.0  0 0.000000 0.000000 0.000000 0.000000 0.000000 0.000000 NONE 0 0 0 0 1 0 0 0 0 0 0 0 0
