@<TRIPOS>MOLECULE
MOL005827
   18    17     1     1     0
SMALL
GASTEIGER


@<TRIPOS>ATOM
      1 C           0.253478    0.144333    0.000043 C.2       1 <1>         0.406509 
      2 O          -0.922215    0.788872   -0.000132 O.3       1 <1>        -0.292430 
      3 O           0.207655   -1.195718   -0.000134 O.3       1 <1>        -0.292430 
      4 O           1.316157    0.749310    0.000354 O.2       1 <1>        -0.229548 
      5 C          -0.814690    2.227233    0.000075 C.3       1 <1>         0.056527 
      6 C           1.499349   -1.837407    0.000075 C.3       1 <1>         0.056527 
      7 C          -2.246495    2.813455   -0.000108 C.3       1 <1>        -0.040903 
      8 C           1.272639   -3.367889   -0.000109 C.3       1 <1>        -0.040903 
      9 H          -0.281329    2.580775    0.899506 H         1 <1>         0.056379 
     10 H          -0.280994    2.581002   -0.899068 H         1 <1>         0.056379 
     11 H           2.075654   -1.559231    0.899512 H         1 <1>         0.056379 
     12 H           2.076021   -1.559058   -0.899075 H         1 <1>         0.056379 
     13 H          -2.213810    3.914398    0.000050 H         1 <1>         0.025190 
     14 H          -2.790690    2.473284   -0.894972 H         1 <1>         0.025190 
     15 H          -2.791014    2.473034    0.894456 H         1 <1>         0.025190 
     16 H           2.236052   -3.901731    0.000049 H         1 <1>         0.025190 
     17 H           0.702357   -3.662205   -0.894972 H         1 <1>         0.025190 
     18 H           0.701973   -3.662357    0.894450 H         1 <1>         0.025190 
@<TRIPOS>BOND
     1    1    2 1    
     2    1    3 1    
     3    1    4 2    
     4    2    5 1    
     5    3    6 1    
     6    5    7 1    
     7    5    9 1    
     8    5   10 1    
     9    6    8 1    
    10    6   11 1    
    11    6   12 1    
    12    7   13 1    
    13    7   14 1    
    14    7   15 1    
    15    8   16 1    
    16    8   17 1    
    17    8   18 1    
@<TRIPOS>SUBSTRUCTURE
     1 ****        1 TEMP              0 ****  ****    0 ROOT 
@<TRIPOS>NORMAL
@<TRIPOS>FF_PBC
FORCE_FIELD_SETUP_FEATURE Force Field Setup information
v1.0  0 0.000000 0.000000 0.000000 0.000000 0.000000 0.000000 NONE 0 0 0 0 1 0 0 0 0 0 0 0 0
