@<TRIPOS>MOLECULE
MOL004582
   21    22     1     1     0
SMALL
GASTEIGER


@<TRIPOS>ATOM
      1 C          -0.202397    0.051931   -0.284964 C.ar      1 <1>        -0.014973 
      2 C          -0.228677   -0.597672    1.051581 C.ar      1 <1>        -0.017632 
      3 C           1.019756    0.758911   -0.699591 C.ar      1 <1>        -0.042744 
      4 C          -1.427590   -0.058313   -1.121792 C.ar      1 <1>        -0.053779 
      5 C           0.903536   -0.534708    1.906348 C.ar      1 <1>        -0.054013 
      6 C           2.177789    0.797511    0.228657 C.ar      1 <1>        -0.058244 
      7 C          -1.443165   -1.319660    1.504284 C.ar      1 <1>        -0.054022 
      8 C           2.126541    0.179285    1.477785 C.ar      1 <1>        -0.060918 
      9 C           1.219030    1.482387   -2.039995 C.3       1 <1>        -0.039133 
     10 C          -2.564153   -0.754574   -0.655056 C.ar      1 <1>        -0.061158 
     11 C          -2.571003   -1.395246    0.679726 C.ar      1 <1>        -0.061166 
     12 H          -1.485526    0.387315   -2.104816 H         1 <1>         0.062370 
     13 H           0.881607   -1.009822    2.881530 H         1 <1>         0.062362 
     14 H           3.083738    1.316623   -0.068324 H         1 <1>         0.062038 
     15 H          -1.462778   -1.794152    2.480190 H         1 <1>         0.062362 
     16 H           2.985288    0.220143    2.140531 H         1 <1>         0.061784 
     17 H           0.363435    1.451736   -2.722215 H         1 <1>         0.027771 
     18 H           1.449908    2.538379   -1.834085 H         1 <1>         0.027771 
     19 H           2.079020    1.028873   -2.555324 H         1 <1>         0.027771 
     20 H          -3.448456   -0.823679   -1.280972 H         1 <1>         0.061776 
     21 H          -3.456303   -1.925067    1.017100 H         1 <1>         0.061776 
@<TRIPOS>BOND
     1    1    2 1    
     2    1    3 2    
     3    1    4 1    
     4    2    5 2    
     5    2    7 1    
     6    3    6 1    
     7    3    9 1    
     8    4   10 2    
     9    4   12 1    
    10    5    8 1    
    11    5   13 1    
    12    6    8 2    
    13    6   14 1    
    14    7   11 2    
    15    7   15 1    
    16    8   16 1    
    17    9   17 1    
    18    9   18 1    
    19    9   19 1    
    20   10   11 1    
    21   10   20 1    
    22   11   21 1    
@<TRIPOS>SUBSTRUCTURE
     1 ****        1 TEMP              0 ****  ****    0 ROOT 
@<TRIPOS>NORMAL
@<TRIPOS>FF_PBC
FORCE_FIELD_SETUP_FEATURE Force Field Setup information
v1.0  0 0.000000 0.000000 0.000000 0.000000 0.000000 0.000000 NONE 0 0 0 0 1 0 0 0 0 0 0 0 0
