@<TRIPOS>MOLECULE
MOL002117
   39    39     1     1     0
SMALL
GASTEIGER


@<TRIPOS>ATOM
      1 C          -1.873266    2.550590   -1.486743 C.2       1 <1>        -0.062780 
      2 C          -0.803497    1.788426   -1.747724 C.2       1 <1>        -0.080412 
      3 C          -0.915968    0.286538   -1.885119 C.3       1 <1>        -0.019719 
      4 C          -2.280239    0.013140   -2.583871 C.3       1 <1>        -0.042536 
      5 C          -3.465999    0.539515   -1.734802 C.3       1 <1>        -0.027701 
      6 C          -3.228877    1.978346   -1.342493 C.2       1 <1>        -0.054705 
      7 C          -4.240836    2.721900   -0.876829 C.2       1 <1>        -0.095505 
      8 C          -0.712910   -0.400127   -0.491093 C.3       1 <1>        -0.037317 
      9 C           0.738266   -0.139873    0.031100 C.3       1 <1>        -0.046480 
     10 C           0.988807   -0.579014    1.502045 C.3       1 <1>        -0.034266 
     11 C           2.323826   -0.046962    1.979601 C.2       1 <1>        -0.085277 
     12 C           3.409382   -0.783190    2.270459 C.2       1 <1>        -0.079617 
     13 C           4.692116   -0.139828    2.753253 C.3       1 <1>        -0.044050 
     14 C           3.437019   -2.289949    2.142900 C.3       1 <1>        -0.044050 
     15 C          -1.011282   -1.926852   -0.553131 C.3       1 <1>        -0.061873 
     16 H          -1.736304    3.626963   -1.377623 H         1 <1>         0.061710 
     17 H           0.172348    2.265243   -1.857054 H         1 <1>         0.057498 
     18 H          -0.127210   -0.069870   -2.569054 H         1 <1>         0.034570 
     19 H          -2.284829    0.556944   -3.544966 H         1 <1>         0.027409 
     20 H          -2.414724   -1.051936   -2.827375 H         1 <1>         0.027409 
     21 H          -4.391269    0.458234   -2.328927 H         1 <1>         0.031317 
     22 H          -3.594667   -0.062649   -0.822726 H         1 <1>         0.031317 
     23 H          -4.099390    3.763411   -0.588528 H         1 <1>         0.053749 
     24 H          -5.241152    2.303783   -0.770481 H         1 <1>         0.053749 
     25 H          -1.411609    0.060320    0.227058 H         1 <1>         0.030384 
     26 H           0.940776    0.941060   -0.005000 H         1 <1>         0.027097 
     27 H           1.469582   -0.640615   -0.623899 H         1 <1>         0.027097 
     28 H           0.939656   -1.670317    1.601648 H         1 <1>         0.030749 
     29 H           0.204943   -0.155078    2.150400 H         1 <1>         0.030749 
     30 H           2.379705    1.037039    2.087570 H         1 <1>         0.057145 
     31 H           5.504148   -0.365688    2.045139 H         1 <1>         0.027427 
     32 H           4.955921   -0.551314    3.739736 H         1 <1>         0.027427 
     33 H           4.618182    0.954592    2.848264 H         1 <1>         0.027427 
     34 H           4.448649   -2.693469    2.301433 H         1 <1>         0.027427 
     35 H           2.771949   -2.735761    2.897644 H         1 <1>         0.027427 
     36 H           3.110562   -2.595675    1.137433 H         1 <1>         0.027427 
     37 H          -2.056341   -2.125532   -0.826371 H         1 <1>         0.023259 
     38 H          -0.861846   -2.412794    0.419886 H         1 <1>         0.023259 
     39 H          -0.353417   -2.409551   -1.291955 H         1 <1>         0.023259 
@<TRIPOS>BOND
     1    1    2 2    
     2    1    6 1    
     3    1   16 1    
     4    2    3 1    
     5    2   17 1    
     6    3    4 1    
     7    3    8 1    
     8    3   18 1    
     9    4    5 1    
    10    4   19 1    
    11    4   20 1    
    12    5    6 1    
    13    5   21 1    
    14    5   22 1    
    15    6    7 2    
    16    7   23 1    
    17    7   24 1    
    18    8    9 1    
    19    8   15 1    
    20    8   25 1    
    21    9   10 1    
    22    9   26 1    
    23    9   27 1    
    24   10   11 1    
    25   10   28 1    
    26   10   29 1    
    27   11   12 2    
    28   11   30 1    
    29   12   13 1    
    30   12   14 1    
    31   13   31 1    
    32   13   32 1    
    33   13   33 1    
    34   14   34 1    
    35   14   35 1    
    36   14   36 1    
    37   15   37 1    
    38   15   38 1    
    39   15   39 1    
@<TRIPOS>SUBSTRUCTURE
     1 ****        1 TEMP              0 ****  ****    0 ROOT 
@<TRIPOS>NORMAL
@<TRIPOS>FF_PBC
FORCE_FIELD_SETUP_FEATURE Force Field Setup information
v1.0  0 0.000000 0.000000 0.000000 0.000000 0.000000 0.000000 NONE 0 0 0 0 1 0 0 0 0 0 0 0 0
