@<TRIPOS>MOLECULE
MOL004876
  120   126     1     1     0
SMALL
GASTEIGER


@<TRIPOS>ATOM
      1 C           0.341514   -1.180274   -0.579556 C.3       1 <1>         0.033332 
      2 C           1.383136   -2.166058    0.084147 C.3       1 <1>        -0.012656 
      3 C          -1.185648   -1.461292   -0.374760 C.3       1 <1>        -0.018250 
      4 C           0.623862    0.253622   -0.219266 C.2       1 <1>         0.160199 
      5 C           2.887564   -1.668542   -0.293779 C.3       1 <1>        -0.004332 
      6 C           0.895794   -3.567267   -0.447004 C.3       1 <1>        -0.045876 
      7 C           1.260566   -2.271814    1.642525 C.3       1 <1>        -0.058099 
      8 C          -1.620252   -2.928896   -0.661983 C.3       1 <1>        -0.027436 
      9 C          -1.974810   -0.603095   -1.422062 C.3       1 <1>        -0.044320 
     10 C          -1.480981   -1.045151    1.101598 C.3       1 <1>        -0.058618 
     11 C           1.975309    0.729432   -0.294453 C.2       1 <1>        -0.018839 
     12 O          -0.185408    1.068905    0.181793 O.2       1 <1>        -0.292347 
     13 C           3.005565   -0.115736   -0.286502 C.2       1 <1>        -0.056185 
     14 C           4.045107   -2.203726    0.630174 C.3       1 <1>        -0.042869 
     15 C           3.232352   -2.181160   -1.733605 C.3       1 <1>        -0.055302 
     16 C          -0.584757   -3.958373   -0.089752 C.3       1 <1>        -0.048587 
     17 C          -3.189972   -3.173219   -0.442306 C.3       1 <1>        -0.005219 
     18 C          -3.511036   -0.849642   -1.471041 C.3       1 <1>        -0.025459 
     19 C           4.349632    0.619906   -0.222582 C.3       1 <1>        -0.012608 
     20 C           5.422209   -1.463748    0.522585 C.3       1 <1>        -0.046277 
     21 C          -4.021637   -1.831441   -0.389691 C.3       1 <1>         0.067175 
     22 C          -3.709096   -4.011823   -1.662664 C.3       1 <1>        -0.057181 
     23 C          -3.526740   -4.065803    0.794569 C.3       1 <1>        -0.057181 
     24 C           5.300337    0.060219    0.855787 C.3       1 <1>        -0.025442 
     25 C           4.981897    0.886080   -1.623261 C.3       1 <1>        -0.031522 
     26 O          -4.087820   -1.237825    0.940169 O.3       1 <1>        -0.344868 
     27 C           6.649216    0.863969    0.809910 C.3       1 <1>        -0.046118 
     28 C           4.684171    0.294037    2.281888 C.3       1 <1>        -0.059016 
     29 C           6.288613    1.740861   -1.613629 C.3       1 <1>         0.053721 
     30 C          -4.745230    0.052142    1.155889 C.3       1 <1>         0.189107 
     31 C           7.259423    1.057566   -0.604259 C.3       1 <1>        -0.038057 
     32 C           6.029862    3.200841   -1.269949 C.2       1 <1>         0.265560 
     33 C           6.905030    1.698272   -3.041249 C.3       1 <1>        -0.050480 
     34 C          -3.992353    1.461136    1.280669 C.3       1 <1>         0.140651 
     35 O          -5.314646   -0.230942    2.441763 O.3       1 <1>        -0.332678 
     36 O           6.907822    4.103898   -1.726534 O.3       1 <1>        -0.330857 
     37 O           5.050301    3.573963   -0.651097 O.2       1 <1>        -0.264567 
     38 O          -3.229787    1.864157    0.098799 O.3       1 <1>        -0.337745 
     39 C          -3.129794    1.676685    2.585233 C.3       1 <1>         0.114864 
     40 C          -4.304204   -0.430105    3.457359 C.3       1 <1>         0.174377 
     41 C          -2.955700    3.296055   -0.027039 C.3       1 <1>         0.189056 
     42 C          -3.663435    0.924897    3.829439 C.3       1 <1>         0.119040 
     43 O          -3.118912    3.061239    3.012228 O.3       1 <1>        -0.386378 
     44 C          -4.929493   -1.000717    4.698919 C.2       1 <1>         0.291467 
     45 O          -3.961529    4.007477   -0.764103 O.3       1 <1>        -0.332684 
     46 C          -1.592894    3.718139   -0.630903 C.3       1 <1>         0.134152 
     47 O          -2.585563    0.766179    4.785375 O.3       1 <1>        -0.386033 
     48 O          -4.778408   -2.312675    4.873942 O.3       1 <1>        -0.329249 
     49 O          -5.510011   -0.294278    5.504409 O.2       1 <1>        -0.262180 
     50 C          -4.101254    3.567629   -2.127422 C.3       1 <1>         0.174377 
     51 C          -1.447754    3.342033   -2.134332 C.3       1 <1>         0.114497 
     52 O          -1.504301    5.148044   -0.443887 O.3       1 <1>        -0.384104 
     53 C          -2.779137    3.385770   -2.950297 C.3       1 <1>         0.119030 
     54 C          -5.058612    2.394719   -2.212622 C.2       1 <1>         0.291467 
     55 O          -0.698651    2.122400   -2.374534 O.3       1 <1>        -0.386388 
     56 O          -2.723145    4.345210   -4.025819 O.3       1 <1>        -0.386033 
     57 O          -5.196916    1.849724   -3.422422 O.3       1 <1>        -0.329249 
     58 O          -5.674161    1.975344   -1.242435 O.2       1 <1>        -0.262180 
     59 H           0.532453   -1.241486   -1.670733 H         1 <1>         0.039170 
     60 H          -1.429547   -3.037887   -1.742291 H         1 <1>         0.031221 
     61 H           4.153930    1.620952    0.195466 H         1 <1>         0.035146 
     62 H           1.565779   -4.360374   -0.085894 H         1 <1>         0.027107 
     63 H           0.917610   -3.593834   -1.546615 H         1 <1>         0.027107 
     64 H           0.300253   -2.519293    2.108801 H         1 <1>         0.023553 
     65 H           1.879787   -3.110255    1.981224 H         1 <1>         0.023553 
     66 H           1.600639   -1.335839    2.091656 H         1 <1>         0.023553 
     67 H          -1.831375    0.455800   -1.240672 H         1 <1>         0.027160 
     68 H          -1.567690   -0.776501   -2.427479 H         1 <1>         0.027160 
     69 H          -0.705308   -0.616746    1.739885 H         1 <1>         0.023535 
     70 H          -1.913384   -1.868662    1.660892 H         1 <1>         0.023535 
     71 H          -2.158712   -0.217508    1.004162 H         1 <1>         0.023535 
     72 H           2.055175    1.820105   -0.320320 H         1 <1>         0.065218 
     73 H           4.211999   -3.268985    0.442832 H         1 <1>         0.027392 
     74 H           3.794664   -2.120312    1.688069 H         1 <1>         0.027392 
     75 H           3.111596   -3.268104   -1.773835 H         1 <1>         0.023829 
     76 H           2.591660   -1.716919   -2.488213 H         1 <1>         0.023829 
     77 H           4.264003   -2.046098   -2.062746 H         1 <1>         0.023829 
     78 H          -0.756797   -4.946614   -0.541125 H         1 <1>         0.026846 
     79 H          -0.735936   -4.122505    0.986366 H         1 <1>         0.026846 
     80 H          -3.796579   -1.207753   -2.473560 H         1 <1>         0.029047 
     81 H          -4.053207    0.084630   -1.342072 H         1 <1>         0.029047 
     82 H           5.854417   -1.613645   -0.473545 H         1 <1>         0.027096 
     83 H           6.144088   -1.917460    1.214954 H         1 <1>         0.027096 
     84 H          -5.073258   -2.084633   -0.593707 H         1 <1>         0.060224 
     85 H          -4.782637   -4.261576   -1.603270 H         1 <1>         0.023587 
     86 H          -3.156411   -4.961352   -1.732456 H         1 <1>         0.023587 
     87 H          -3.553087   -3.464541   -2.606129 H         1 <1>         0.023587 
     88 H          -2.936310   -4.994375    0.695382 H         1 <1>         0.023587 
     89 H          -3.323793   -3.602622    1.779256 H         1 <1>         0.023587 
     90 H          -4.603844   -4.332590    0.767286 H         1 <1>         0.023587 
     91 H           4.239557    1.394162   -2.256389 H         1 <1>         0.028121 
     92 H           5.222423   -0.061386   -2.111837 H         1 <1>         0.028121 
     93 H           6.498967    1.883335    1.191725 H         1 <1>         0.027098 
     94 H           7.377714    0.372629    1.473300 H         1 <1>         0.027098 
     95 H           3.615973    0.033976    2.323863 H         1 <1>         0.023525 
     96 H           5.238104   -0.301183    3.025075 H         1 <1>         0.023525 
     97 H           4.740971    1.356068    2.585721 H         1 <1>         0.023525 
     98 H          -5.601395    0.143682    0.468087 H         1 <1>         0.093773 
     99 H           8.179544    1.662483   -0.510277 H         1 <1>         0.027550 
    100 H           7.550287    0.064748   -0.990645 H         1 <1>         0.027550 
    101 H           6.214497    2.175489   -3.750796 H         1 <1>         0.023986 
    102 H           7.860555    2.237931   -3.057429 H         1 <1>         0.023986 
    103 H           7.098220    0.671390   -3.379836 H         1 <1>         0.023986 
    104 H          -4.834260    2.165695    1.381404 H         1 <1>         0.067477 
    105 H           6.654041    5.003483   -1.553707 H         1 <1>         0.220226 
    106 H          -2.065883    1.413202    2.433594 H         1 <1>         0.064781 
    107 H          -3.494367   -1.115164    3.172413 H         1 <1>         0.072940 
    108 H          -2.964834    3.811339    0.935657 H         1 <1>         0.093767 
    109 H          -4.463370    1.562484    4.236187 H         1 <1>         0.065129 
    110 H          -2.585247    3.222115    3.788683 H         1 <1>         0.210005 
    111 H          -0.766058    3.296965   -0.032324 H         1 <1>         0.067096 
    112 H          -2.843468    0.370216    5.614331 H         1 <1>         0.210020 
    113 H          -5.182194   -2.607515    5.681998 H         1 <1>         0.220293 
    114 H          -4.691631    4.364024   -2.607893 H         1 <1>         0.072940 
    115 H          -0.771673    4.110417   -2.537964 H         1 <1>         0.064771 
    116 H          -0.670179    5.533270   -0.672792 H         1 <1>         0.210110 
    117 H          -2.859088    2.403764   -3.436816 H         1 <1>         0.065129 
    118 H          -0.528897    1.929695   -3.287491 H         1 <1>         0.210005 
    119 H          -1.964675    4.247526   -4.594964 H         1 <1>         0.210020 
    120 H          -5.788158    1.107314   -3.415041 H         1 <1>         0.220293 
@<TRIPOS>BOND
     1    1    2 1    
     2    1    3 1    
     3    1    4 1    
     4    1   59 1    
     5    2    5 1    
     6    2    6 1    
     7    2    7 1    
     8    3    8 1    
     9    3    9 1    
    10    3   10 1    
    11    4   11 1    
    12    4   12 2    
    13    5   13 1    
    14    5   14 1    
    15    5   15 1    
    16    6   16 1    
    17    6   62 1    
    18    6   63 1    
    19    7   64 1    
    20    7   65 1    
    21    7   66 1    
    22    8   16 1    
    23    8   17 1    
    24    8   60 1    
    25    9   18 1    
    26    9   67 1    
    27    9   68 1    
    28   10   69 1    
    29   10   70 1    
    30   10   71 1    
    31   11   13 2    
    32   11   72 1    
    33   13   19 1    
    34   14   20 1    
    35   14   73 1    
    36   14   74 1    
    37   15   75 1    
    38   15   76 1    
    39   15   77 1    
    40   16   78 1    
    41   16   79 1    
    42   17   21 1    
    43   17   22 1    
    44   17   23 1    
    45   18   21 1    
    46   18   80 1    
    47   18   81 1    
    48   19   24 1    
    49   19   25 1    
    50   19   61 1    
    51   20   24 1    
    52   20   82 1    
    53   20   83 1    
    54   21   26 1    
    55   21   84 1    
    56   22   85 1    
    57   22   86 1    
    58   22   87 1    
    59   23   88 1    
    60   23   89 1    
    61   23   90 1    
    62   24   27 1    
    63   24   28 1    
    64   25   29 1    
    65   25   91 1    
    66   25   92 1    
    67   26   30 1    
    68   27   31 1    
    69   27   93 1    
    70   27   94 1    
    71   28   95 1    
    72   28   96 1    
    73   28   97 1    
    74   29   31 1    
    75   29   32 1    
    76   29   33 1    
    77   30   34 1    
    78   30   35 1    
    79   30   98 1    
    80   31   99 1    
    81   31  100 1    
    82   32   36 1    
    83   32   37 2    
    84   33  101 1    
    85   33  102 1    
    86   33  103 1    
    87   34   38 1    
    88   34   39 1    
    89   34  104 1    
    90   35   40 1    
    91   36  105 1    
    92   38   41 1    
    93   39   42 1    
    94   39   43 1    
    95   39  106 1    
    96   40   42 1    
    97   40   44 1    
    98   40  107 1    
    99   41   45 1    
   100   41   46 1    
   101   41  108 1    
   102   42   47 1    
   103   42  109 1    
   104   43  110 1    
   105   44   48 1    
   106   44   49 2    
   107   45   50 1    
   108   46   51 1    
   109   46   52 1    
   110   46  111 1    
   111   47  112 1    
   112   48  113 1    
   113   50   53 1    
   114   50   54 1    
   115   50  114 1    
   116   51   53 1    
   117   51   55 1    
   118   51  115 1    
   119   52  116 1    
   120   53   56 1    
   121   53  117 1    
   122   54   57 1    
   123   54   58 2    
   124   55  118 1    
   125   56  119 1    
   126   57  120 1    
@<TRIPOS>SUBSTRUCTURE
     1 ****        1 TEMP              0 ****  ****    0 ROOT 
@<TRIPOS>NORMAL
@<TRIPOS>FF_PBC
FORCE_FIELD_SETUP_FEATURE Force Field Setup information
v1.0  0 0.000000 0.000000 0.000000 0.000000 0.000000 0.000000 NONE 0 0 0 0 1 0 0 0 0 0 0 0 0
