@<TRIPOS>MOLECULE
MOL004075
   41    43     1     1     0
SMALL
GASTEIGER


@<TRIPOS>ATOM
      1 C           2.284186    0.912610    0.632340 C.3       1 <1>         0.077166 
      2 C           1.594209   -0.314534    1.175201 C.2       1 <1>        -0.042293 
      3 C           0.424946   -0.533989    0.573233 C.2       1 <1>        -0.032761 
      4 C           0.082202    0.495720   -0.451577 C.3       1 <1>         0.005149 
      5 C           1.482290    1.139976   -0.685317 C.3       1 <1>        -0.012792 
      6 C          -0.554376   -1.675453    0.666742 C.3       1 <1>         0.080430 
      7 C          -1.427199   -1.333891   -0.582657 C.3       1 <1>        -0.005132 
      8 C          -2.670413   -0.498288   -0.162192 C.3       1 <1>        -0.046773 
      9 C          -2.265052    0.776135    0.627426 C.3       1 <1>        -0.049288 
     10 C          -1.002626    1.502829    0.072126 C.3       1 <1>        -0.033834 
     11 C          -0.473568   -0.511722   -1.512411 C.3       1 <1>        -0.019673 
     12 C          -1.155356    0.167687   -2.742641 C.3       1 <1>        -0.058659 
     13 C           0.601523   -1.487797   -2.113671 C.3       1 <1>        -0.058659 
     14 O           3.673513    0.701920    0.321611 O.3       1 <1>        -0.387473 
     15 C           2.261117   -1.140631    2.244658 C.3       1 <1>        -0.041018 
     16 O          -1.312126   -1.748288    1.886696 O.3       1 <1>        -0.387180 
     17 C          -0.508481    2.487781    1.174243 C.3       1 <1>        -0.061600 
     18 H           2.179623    1.751843    1.338177 H         1 <1>         0.064042 
     19 H           2.028174    0.610280   -1.475517 H         1 <1>         0.030199 
     20 H           1.435102    2.194578   -0.994051 H         1 <1>         0.030199 
     21 H          -0.014269   -2.625266    0.512415 H         1 <1>         0.064339 
     22 H          -1.793911   -2.251231   -1.073698 H         1 <1>         0.033435 
     23 H          -3.324913   -1.116567    0.475576 H         1 <1>         0.026910 
     24 H          -3.276406   -0.238597   -1.041957 H         1 <1>         0.026910 
     25 H          -3.120587    1.471706    0.655734 H         1 <1>         0.026822 
     26 H          -2.065228    0.493314    1.671625 H         1 <1>         0.026822 
     27 H          -1.294376    2.145211   -0.772818 H         1 <1>         0.030672 
     28 H          -1.971331    0.860582   -2.510974 H         1 <1>         0.023535 
     29 H          -1.566296   -0.605806   -3.409363 H         1 <1>         0.023535 
     30 H          -0.403858    0.745611   -3.301889 H         1 <1>         0.023535 
     31 H           1.303334   -1.896245   -1.372926 H         1 <1>         0.023535 
     32 H           1.204423   -1.002794   -2.895720 H         1 <1>         0.023535 
     33 H           0.099614   -2.340731   -2.595497 H         1 <1>         0.023535 
     34 H           4.209870    0.547738    1.092210 H         1 <1>         0.210218 
     35 H           1.625065   -1.973920    2.571760 H         1 <1>         0.027526 
     36 H           2.485144   -0.505127    3.114186 H         1 <1>         0.027526 
     37 H           3.198085   -1.565831    1.856687 H         1 <1>         0.027526 
     38 H          -0.771178   -1.860328    2.659897 H         1 <1>         0.210230 
     39 H          -1.346020    3.116201    1.516362 H         1 <1>         0.023268 
     40 H          -0.125488    1.935487    2.045533 H         1 <1>         0.023268 
     41 H           0.271642    3.170828    0.809433 H         1 <1>         0.023268 
@<TRIPOS>BOND
     1    1    2 1    
     2    1    5 1    
     3    1   14 1    
     4    1   18 1    
     5    2    3 2    
     6    2   15 1    
     7    3    4 1    
     8    3    6 1    
     9    4    5 1    
    10    4   10 1    
    11    4   11 1    
    12    5   19 1    
    13    5   20 1    
    14    6    7 1    
    15    6   16 1    
    16    6   21 1    
    17    7    8 1    
    18    7   11 1    
    19    7   22 1    
    20    8    9 1    
    21    8   23 1    
    22    8   24 1    
    23    9   10 1    
    24    9   25 1    
    25    9   26 1    
    26   10   17 1    
    27   10   27 1    
    28   11   12 1    
    29   11   13 1    
    30   12   28 1    
    31   12   29 1    
    32   12   30 1    
    33   13   31 1    
    34   13   32 1    
    35   13   33 1    
    36   14   34 1    
    37   15   35 1    
    38   15   36 1    
    39   15   37 1    
    40   16   38 1    
    41   17   39 1    
    42   17   40 1    
    43   17   41 1    
@<TRIPOS>SUBSTRUCTURE
     1 ****        1 TEMP              0 ****  ****    0 ROOT 
@<TRIPOS>NORMAL
@<TRIPOS>FF_PBC
FORCE_FIELD_SETUP_FEATURE Force Field Setup information
v1.0  0 0.000000 0.000000 0.000000 0.000000 0.000000 0.000000 NONE 0 0 0 0 1 0 0 0 0 0 0 0 0
