@<TRIPOS>MOLECULE
MOL005811
   55    57     1     1     0
SMALL
GASTEIGER


@<TRIPOS>ATOM
      1 C           1.183166    0.185665   -0.092890 C.2       1 <1>         0.124041 
      2 C           1.743026    1.392910    0.089807 C.2       1 <1>         0.154524 
      3 C           0.909603    2.602304    0.188658 C.2       1 <1>         0.223475 
      4 C          -0.586559    2.448138    0.072880 C.ar      1 <1>         0.089901 
      5 C          -1.072964    1.064613   -0.079523 C.ar      1 <1>         0.129110 
      6 O          -0.148764    0.017052   -0.132944 O.3       1 <1>        -0.302533 
      7 C          -2.476946    0.811574   -0.178164 C.ar      1 <1>         0.139628 
      8 C          -3.430061    1.959573   -0.131052 C.ar      1 <1>         0.140849 
      9 C          -2.932133    3.307789    0.002103 C.ar      1 <1>         0.139097 
     10 C          -1.463230    3.542418    0.106088 C.ar      1 <1>         0.121759 
     11 O           1.431975    3.691336    0.364008 O.2       1 <1>        -0.284260 
     12 O          -2.980101   -0.492319   -0.322925 O.3       1 <1>        -0.342861 
     13 C          -2.215516   -1.686345   -0.097530 C.3       1 <1>         0.043244 
     14 O          -4.818374    1.754048   -0.213648 O.3       1 <1>        -0.342828 
     15 C          -5.452737    0.466447   -0.249808 C.3       1 <1>         0.043244 
     16 O          -3.797083    4.415896    0.040646 O.3       1 <1>        -0.342873 
     17 C          -5.231001    4.349476   -0.008586 C.3       1 <1>         0.043244 
     18 O          -0.912109    4.826286    0.238736 O.3       1 <1>        -0.344467 
     19 C          -1.687540    6.034498    0.238759 C.3       1 <1>         0.043165 
     20 O           3.075383    1.513390    0.187989 O.3       1 <1>        -0.342026 
     21 C           3.572231    1.111584    1.480287 C.3       1 <1>         0.043278 
     22 C           2.018348   -1.064469   -0.274925 C.ar      1 <1>         0.010746 
     23 C           1.569804   -2.328294    0.355917 C.ar      1 <1>        -0.019431 
     24 C           2.284237   -3.526502    0.201336 C.ar      1 <1>         0.106289 
     25 C           3.537654   -3.524373   -0.607103 C.ar      1 <1>         0.105689 
     26 C           3.970258   -2.323411   -1.207004 C.ar      1 <1>        -0.028511 
     27 C           3.200757   -1.069161   -1.041726 C.ar      1 <1>        -0.049427 
     28 O           4.287111   -4.689736   -0.787966 O.3       1 <1>        -0.345341 
     29 C           5.583506   -4.702202   -0.165916 C.3       1 <1>         0.043135 
     30 O           1.774923   -4.677994    0.821193 O.3       1 <1>        -0.345322 
     31 C           2.324870   -5.983081    0.586631 C.3       1 <1>         0.043136 
     32 H          -2.910459   -2.536818   -0.152957 H         1 <1>         0.052872 
     33 H          -1.764012   -1.672934    0.905659 H         1 <1>         0.052872 
     34 H          -1.446454   -1.831544   -0.870797 H         1 <1>         0.052872 
     35 H          -6.539171    0.636681   -0.254947 H         1 <1>         0.052872 
     36 H          -5.202725   -0.125780    0.643754 H         1 <1>         0.052872 
     37 H          -5.191745   -0.083345   -1.166640 H         1 <1>         0.052872 
     38 H          -5.608594    5.380283    0.057436 H         1 <1>         0.052872 
     39 H          -5.580226    3.919947   -0.959854 H         1 <1>         0.052872 
     40 H          -5.633363    3.783290    0.845227 H         1 <1>         0.052872 
     41 H          -0.985481    6.875961    0.330637 H         1 <1>         0.052871 
     42 H          -2.373978    6.067496    1.098380 H         1 <1>         0.052871 
     43 H          -2.241889    6.151917   -0.704957 H         1 <1>         0.052871 
     44 H           4.664531    1.240308    1.471843 H         1 <1>         0.052873 
     45 H           3.352296    0.060691    1.723056 H         1 <1>         0.052873 
     46 H           3.154879    1.756993    2.269980 H         1 <1>         0.052873 
     47 H           0.667041   -2.335315    0.954208 H         1 <1>         0.065083 
     48 H           4.874972   -2.314140   -1.804696 H         1 <1>         0.064430 
     49 H           3.552860   -0.165307   -1.526851 H         1 <1>         0.062506 
     50 H           6.032251   -5.691144   -0.341018 H         1 <1>         0.052871 
     51 H           5.494317   -4.542036    0.919720 H         1 <1>         0.052871 
     52 H           6.250949   -3.938171   -0.590942 H         1 <1>         0.052871 
     53 H           1.686467   -6.710518    1.108735 H         1 <1>         0.052871 
     54 H           3.340779   -6.067629    0.998179 H         1 <1>         0.052871 
     55 H           2.323228   -6.227210   -0.486786 H         1 <1>         0.052871 
@<TRIPOS>BOND
     1    1    2 2    
     2    1    6 1    
     3    1   22 1    
     4    2    3 1    
     5    2   20 1    
     6    3    4 1    
     7    3   11 2    
     8    4    5 1    
     9    4   10 2    
    10    5    6 1    
    11    5    7 2    
    12    7    8 1    
    13    7   12 1    
    14    8    9 2    
    15    8   14 1    
    16    9   10 1    
    17    9   16 1    
    18   10   18 1    
    19   12   13 1    
    20   13   32 1    
    21   13   33 1    
    22   13   34 1    
    23   14   15 1    
    24   15   35 1    
    25   15   36 1    
    26   15   37 1    
    27   16   17 1    
    28   17   38 1    
    29   17   39 1    
    30   17   40 1    
    31   18   19 1    
    32   19   41 1    
    33   19   42 1    
    34   19   43 1    
    35   20   21 1    
    36   21   44 1    
    37   21   45 1    
    38   21   46 1    
    39   22   23 1    
    40   22   27 2    
    41   23   24 2    
    42   23   47 1    
    43   24   25 1    
    44   24   30 1    
    45   25   26 2    
    46   25   28 1    
    47   26   27 1    
    48   26   48 1    
    49   27   49 1    
    50   28   29 1    
    51   29   50 1    
    52   29   51 1    
    53   29   52 1    
    54   30   31 1    
    55   31   53 1    
    56   31   54 1    
    57   31   55 1    
@<TRIPOS>SUBSTRUCTURE
     1 ****        1 TEMP              0 ****  ****    0 ROOT 
@<TRIPOS>NORMAL
@<TRIPOS>FF_PBC
FORCE_FIELD_SETUP_FEATURE Force Field Setup information
v1.0  0 0.000000 0.000000 0.000000 0.000000 0.000000 0.000000 NONE 0 0 0 0 1 0 0 0 0 0 0 0 0
