@<TRIPOS>MOLECULE
MOL006967
   32    34     1     1     0
SMALL
GASTEIGER


@<TRIPOS>ATOM
      1 O          -1.896453    2.692193    3.290783 O.3       1 <1>        -0.392364 
      2 C          -0.746393    1.835488    3.413183 C.3       1 <1>         0.073153 
      3 C          -1.004357    0.534052    2.613219 C.3       1 <1>         0.116889 
      4 C           0.186536   -0.465330    2.642995 C.3       1 <1>         0.118333 
      5 O          -0.326319   -1.772611    2.962355 O.3       1 <1>        -0.386238 
      6 C           0.687075   -0.465292    1.179451 C.3       1 <1>         0.172815 
      7 O           1.331120   -1.713338    0.857113 O.3       1 <1>        -0.380303 
      8 C          -0.649013   -0.228707    0.442819 C.3       1 <1>         0.298102 
      9 O          -1.186057    0.847703    1.218782 O.3       1 <1>        -0.309356 
     10 N          -0.504259    0.238612   -0.963467 N.ar      1 <1>        -0.131608 
     11 C          -1.030304    1.393209   -1.463712 C.ar      1 <1>         0.271951 
     12 N          -0.724848    1.467040   -2.828944 N.ar      1 <1>        -0.181123 
     13 C          -0.013071    0.360297   -3.166798 C.ar      1 <1>         0.210394 
     14 C           0.540016   -0.086789   -4.342771 C.ar      1 <1>         0.203639 
     15 O           0.436262    0.634831   -5.532210 O.3       1 <1>        -0.342452 
     16 N           1.211739   -1.292349   -4.305614 N.ar      1 <1>        -0.179851 
     17 C           1.334848   -2.042077   -3.127983 C.ar      1 <1>         0.273288 
     18 O           2.025140   -3.246162   -3.179928 O.3       1 <1>        -0.329037 
     19 N           0.786904   -1.601980   -1.940712 N.ar      1 <1>        -0.141986 
     20 C           0.132409   -0.444376   -1.950211 C.ar      1 <1>         0.341968 
     21 H          -1.807580    3.514212    3.765399 H         1 <1>         0.209508 
     22 H           0.147895    2.337499    3.007275 H         1 <1>         0.058372 
     23 H          -0.569345    1.584928    4.473367 H         1 <1>         0.058372 
     24 H          -1.918098    0.051369    3.000283 H         1 <1>         0.064805 
     25 H           0.982433   -0.183806    3.355076 H         1 <1>         0.064917 
     26 H           0.344987   -2.448347    2.903988 H         1 <1>         0.210008 
     27 H           1.355949    0.398324    1.016167 H         1 <1>         0.071554 
     28 H           1.660329   -1.761471   -0.034860 H         1 <1>         0.210285 
     29 H          -1.286424   -1.129949    0.505789 H         1 <1>         0.144492 
     30 H          -1.594194    2.140496   -0.909129 H         1 <1>         0.162031 
     31 H          -0.047687    1.449811   -5.448985 H         1 <1>         0.218983 
     32 H           2.006928   -3.702014   -2.346545 H         1 <1>         0.220461 
@<TRIPOS>BOND
     1    1    2 1    
     2    1   21 1    
     3    2    3 1    
     4    2   22 1    
     5    2   23 1    
     6    3    4 1    
     7    3    9 1    
     8    3   24 1    
     9    4    5 1    
    10    4    6 1    
    11    4   25 1    
    12    5   26 1    
    13    6    7 1    
    14    6    8 1    
    15    6   27 1    
    16    7   28 1    
    17    8    9 1    
    18    8   10 1    
    19    8   29 1    
    20   10   11 1    
    21   10   20 1    
    22   11   12 2    
    23   11   30 1    
    24   12   13 1    
    25   13   14 2    
    26   13   20 1    
    27   14   15 1    
    28   14   16 1    
    29   15   31 1    
    30   16   17 2    
    31   17   18 1    
    32   17   19 1    
    33   18   32 1    
    34   19   20 2    
@<TRIPOS>SUBSTRUCTURE
     1 ****        1 TEMP              0 ****  ****    0 ROOT 
@<TRIPOS>NORMAL
@<TRIPOS>FF_PBC
FORCE_FIELD_SETUP_FEATURE Force Field Setup information
v1.0  0 0.000000 0.000000 0.000000 0.000000 0.000000 0.000000 NONE 0 0 0 0 1 0 0 0 0 0 0 0 0
