@<TRIPOS>MOLECULE
MOL005019
   44    46     1     1     0
SMALL
GASTEIGER


@<TRIPOS>ATOM
      1 C          -4.467279   -3.033413    0.571218 C.ar      1 <1>         0.075065 
      2 C          -4.131427   -4.261184   -0.197731 C.ar      1 <1>        -0.031116 
      3 C          -3.028085   -4.271590   -1.064895 C.ar      1 <1>        -0.046345 
      4 C          -2.202068   -3.051469   -1.223316 C.ar      1 <1>         0.047604 
      5 C          -2.535756   -1.884077   -0.517378 C.ar      1 <1>         0.089874 
      6 C          -3.690854   -1.885705    0.409997 C.ar      1 <1>        -0.001193 
      7 C          -0.992317   -3.018485   -2.128784 C.2       1 <1>         0.168428 
      8 C          -0.115703   -1.796055   -2.101474 C.3       1 <1>         0.041476 
      9 C          -1.048394   -0.578582   -1.906717 C.3       1 <1>         0.097168 
     10 O          -1.782757   -0.718411   -0.675971 O.3       1 <1>        -0.335670 
     11 C          -0.268740    0.738560   -1.799450 C.ar      1 <1>        -0.017554 
     12 O          -0.725337   -3.958649   -2.861004 O.2       1 <1>        -0.291871 
     13 C          -0.358373    1.757098   -2.873641 C.ar      1 <1>        -0.053644 
     14 C           0.344024    2.959050   -2.753994 C.ar      1 <1>        -0.031324 
     15 C           1.164696    3.232588   -1.550621 C.ar      1 <1>         0.076054 
     16 C           1.248729    2.284736   -0.511319 C.ar      1 <1>        -0.013597 
     17 C           0.526649    0.993264   -0.674841 C.ar      1 <1>        -0.050171 
     18 O           1.847398    4.442605   -1.455784 O.3       1 <1>        -0.359551 
     19 O          -5.548814   -3.006184    1.455311 O.3       1 <1>        -0.359749 
     20 C           2.071722    2.640748    0.742006 C.3       1 <1>        -0.006801 
     21 C           1.934281    1.727706    1.940489 C.2       1 <1>        -0.080898 
     22 C           2.885598    1.545164    2.872791 C.2       1 <1>        -0.079307 
     23 C           2.708661    0.524034    3.975900 C.3       1 <1>        -0.044040 
     24 C           4.184355    2.321328    2.909138 C.3       1 <1>        -0.044040 
     25 H          -4.739902   -5.152555   -0.088312 H         1 <1>         0.064341 
     26 H          -2.780741   -5.173148   -1.617981 H         1 <1>         0.062610 
     27 H          -3.930522   -0.987975    0.964535 H         1 <1>         0.066929 
     28 H           0.461194   -1.702173   -3.033992 H         1 <1>         0.037398 
     29 H           0.581905   -1.887029   -1.256056 H         1 <1>         0.037398 
     30 H          -1.766983   -0.520261   -2.741542 H         1 <1>         0.065571 
     31 H          -0.965937    1.572495   -3.753436 H         1 <1>         0.062190 
     32 H           0.287730    3.704687   -3.540542 H         1 <1>         0.064338 
     33 H           0.601242    0.220700    0.074692 H         1 <1>         0.062471 
     34 H           2.755468    4.323379   -1.710889 H         1 <1>         0.217325 
     35 H          -6.032103   -3.823092    1.492253 H         1 <1>         0.217315 
     36 H           3.120671    2.676454    0.412521 H         1 <1>         0.035640 
     37 H           1.762640    3.646910    1.062224 H         1 <1>         0.035640 
     38 H           0.999527    1.184245    2.065258 H         1 <1>         0.057472 
     39 H           1.829599   -0.121044    3.827751 H         1 <1>         0.027427 
     40 H           2.602478    1.032817    4.946232 H         1 <1>         0.027427 
     41 H           3.595758   -0.126017    4.008970 H         1 <1>         0.027427 
     42 H           4.479408    2.507076    3.953381 H         1 <1>         0.027427 
     43 H           4.105877    3.304276    2.422350 H         1 <1>         0.027427 
     44 H           4.979086    1.739602    2.420238 H         1 <1>         0.027427 
@<TRIPOS>BOND
     1    1    2 1    
     2    1    6 2    
     3    1   19 1    
     4    2    3 2    
     5    2   25 1    
     6    3    4 1    
     7    3   26 1    
     8    4    5 2    
     9    4    7 1    
    10    5    6 1    
    11    5   10 1    
    12    6   27 1    
    13    7    8 1    
    14    7   12 2    
    15    8    9 1    
    16    8   28 1    
    17    8   29 1    
    18    9   10 1    
    19    9   11 1    
    20    9   30 1    
    21   11   13 1    
    22   11   17 2    
    23   13   14 2    
    24   13   31 1    
    25   14   15 1    
    26   14   32 1    
    27   15   16 2    
    28   15   18 1    
    29   16   17 1    
    30   16   20 1    
    31   17   33 1    
    32   18   34 1    
    33   19   35 1    
    34   20   21 1    
    35   20   36 1    
    36   20   37 1    
    37   21   22 2    
    38   21   38 1    
    39   22   23 1    
    40   22   24 1    
    41   23   39 1    
    42   23   40 1    
    43   23   41 1    
    44   24   42 1    
    45   24   43 1    
    46   24   44 1    
@<TRIPOS>SUBSTRUCTURE
     1 ****        1 TEMP              0 ****  ****    0 ROOT 
@<TRIPOS>NORMAL
@<TRIPOS>FF_PBC
FORCE_FIELD_SETUP_FEATURE Force Field Setup information
v1.0  0 0.000000 0.000000 0.000000 0.000000 0.000000 0.000000 NONE 0 0 0 0 1 0 0 0 0 0 0 0 0
