@<TRIPOS>MOLECULE
MOL002731
   57    58     1     1     0
SMALL
GASTEIGER


@<TRIPOS>ATOM
      1 O          -1.916929   -0.129007    0.459382 O.3       1 <1>        -0.340512 
      2 O           2.927542    1.391723   -1.350347 O.3       1 <1>        -0.379654 
      3 O          -1.882534    2.137297   -0.221141 O.3       1 <1>        -0.341646 
      4 O          -5.314602   -0.831764   -1.904944 O.3       1 <1>        -0.386401 
      5 O          -4.390707   -2.850734    0.158427 O.3       1 <1>        -0.386488 
      6 O          -4.505692    1.870873   -1.346028 O.3       1 <1>        -0.384104 
      7 O           5.929004   -1.816918   -1.004579 O.2       1 <1>        -0.292661 
      8 O          -1.021914   -1.999559    2.469611 O.3       1 <1>        -0.392366 
      9 C           2.428665   -0.914092   -0.836092 C.3       1 <1>         0.008343 
     10 C           2.638132    0.517305   -0.242897 C.3       1 <1>         0.110840 
     11 C           3.708039   -1.309695   -1.630759 C.3       1 <1>         0.018235 
     12 C           3.882692    0.567766    0.629688 C.2       1 <1>        -0.033891 
     13 C          -4.550478   -0.527375   -0.720200 C.3       1 <1>         0.114062 
     14 C           2.178752   -1.963237    0.288102 C.3       1 <1>        -0.056178 
     15 C           1.210683   -0.925005   -1.808247 C.3       1 <1>        -0.056178 
     16 C          -3.634023   -1.713764   -0.304964 C.3       1 <1>         0.111896 
     17 C          -3.686288    0.728730   -1.017581 C.3       1 <1>         0.134132 
     18 C          -2.717917    1.028598    0.157036 C.3       1 <1>         0.188546 
     19 C          -2.713377   -1.264351    0.858064 C.3       1 <1>         0.113005 
     20 C           1.392138    0.989162    0.489663 C.2       1 <1>        -0.049762 
     21 C           4.930726   -1.154661   -0.770460 C.2       1 <1>         0.156765 
     22 C           4.935918   -0.215182    0.361239 C.2       1 <1>        -0.017210 
     23 C          -0.740443    2.342069    0.633345 C.3       1 <1>         0.077195 
     24 C           0.477212    1.791670   -0.071166 C.2       1 <1>        -0.056725 
     25 C           3.897890    1.544540    1.786460 C.3       1 <1>        -0.040377 
     26 C          -1.741665   -2.393304    1.286524 C.3       1 <1>         0.073015 
     27 C          -0.546896    3.872737    0.764131 C.3       1 <1>        -0.034958 
     28 H           3.843729   -0.676858   -2.520477 H         1 <1>         0.035125 
     29 H           3.635117   -2.355870   -1.967342 H         1 <1>         0.035125 
     30 H          -5.232757   -0.287743    0.113354 H         1 <1>         0.064758 
     31 H          -2.995781   -1.995639   -1.161298 H         1 <1>         0.064673 
     32 H          -3.064717    0.516208   -1.901975 H         1 <1>         0.067095 
     33 H           2.062269   -2.970277   -0.140898 H         1 <1>         0.023618 
     34 H           3.002110   -1.997180    1.015406 H         1 <1>         0.023618 
     35 H           1.259195   -1.727635    0.834962 H         1 <1>         0.023618 
     36 H           1.327381   -0.160569   -2.591546 H         1 <1>         0.023618 
     37 H           1.119364   -1.905850   -2.299523 H         1 <1>         0.023618 
     38 H           0.270254   -0.726647   -1.272023 H         1 <1>         0.023618 
     39 H          -3.329083   -1.027378    1.741925 H         1 <1>         0.064668 
     40 H          -3.295077    1.337320    1.044641 H         1 <1>         0.093760 
     41 H           1.233142    0.663275    1.516347 H         1 <1>         0.060147 
     42 H           5.835542   -0.180160    0.975044 H         1 <1>         0.065274 
     43 H          -0.869407    1.931886    1.650325 H         1 <1>         0.063841 
     44 H           0.589290    2.104562   -1.108760 H         1 <1>         0.059532 
     45 H           3.102695    2.289714   -1.088575 H         1 <1>         0.211064 
     46 H           4.920774    1.732212    2.146494 H         1 <1>         0.027546 
     47 H           3.314014    1.142250    2.626934 H         1 <1>         0.027546 
     48 H           3.470132    2.510920    1.479564 H         1 <1>         0.027546 
     49 H          -1.048997   -2.620393    0.459672 H         1 <1>         0.058370 
     50 H          -2.296567   -3.311818    1.534735 H         1 <1>         0.058370 
     51 H          -5.954922   -1.525918   -1.789819 H         1 <1>         0.210005 
     52 H          -4.925615   -3.258833   -0.514288 H         1 <1>         0.210004 
     53 H          -5.072442    2.150556   -0.635974 H         1 <1>         0.210110 
     54 H           0.350187    4.098385    1.362348 H         1 <1>         0.025765 
     55 H          -1.424191    4.317745    1.258165 H         1 <1>         0.025765 
     56 H          -0.436346    4.333198   -0.230103 H         1 <1>         0.025765 
     57 H          -0.565219   -1.171686    2.351211 H         1 <1>         0.209508 
@<TRIPOS>BOND
     1   18    1 1    
     2    1   19 1    
     3   10    2 1    
     4    2   45 1    
     5    3   18 1    
     6   23    3 1    
     7   13    4 1    
     8    4   51 1    
     9   16    5 1    
    10    5   52 1    
    11   17    6 1    
    12    6   53 1    
    13   21    7 2    
    14   26    8 1    
    15    8   57 1    
    16   10    9 1    
    17    9   11 1    
    18    9   14 1    
    19    9   15 1    
    20   10   12 1    
    21   20   10 1    
    22   11   21 1    
    23   11   28 1    
    24   11   29 1    
    25   12   22 2    
    26   12   25 1    
    27   13   16 1    
    28   17   13 1    
    29   13   30 1    
    30   14   33 1    
    31   14   34 1    
    32   14   35 1    
    33   15   36 1    
    34   15   37 1    
    35   15   38 1    
    36   19   16 1    
    37   16   31 1    
    38   18   17 1    
    39   17   32 1    
    40   18   40 1    
    41   19   26 1    
    42   19   39 1    
    43   24   20 2    
    44   20   41 1    
    45   22   21 1    
    46   22   42 1    
    47   23   24 1    
    48   23   27 1    
    49   23   43 1    
    50   24   44 1    
    51   25   46 1    
    52   25   47 1    
    53   25   48 1    
    54   26   49 1    
    55   26   50 1    
    56   27   54 1    
    57   27   55 1    
    58   27   56 1    
@<TRIPOS>SUBSTRUCTURE
     1 ****        4 TEMP              0 ****  ****    0 ROOT 
@<TRIPOS>NORMAL
@<TRIPOS>FF_PBC
FORCE_FIELD_SETUP_FEATURE Force Field Setup information
v1.0  0 0.000000 0.000000 0.000000 0.000000 0.000000 0.000000 NONE 0 0 0 0 1 0 0 0 0 0 0 0 0
