@<TRIPOS>MOLECULE
MOL004864
   46    48     1     1     0
SMALL
GASTEIGER


@<TRIPOS>ATOM
      1 C          15.478091   -7.374543   -0.357065 C.ar      1 <1>        -0.031115 
      2 C          14.003024   -7.097372   -0.126885 C.ar      1 <1>        -0.051413 
      3 C          13.390338   -5.801822   -0.514493 C.ar      1 <1>        -0.012137 
      4 C          14.286294   -4.748066   -1.155176 C.ar      1 <1>        -0.051413 
      5 C          15.731438   -5.009161   -1.356798 C.ar      1 <1>        -0.031115 
      6 C          16.349353   -6.333693   -0.954932 C.ar      1 <1>         0.075849 
      7 C           9.204802   -5.100098    0.412145 C.ar      1 <1>         0.101520 
      8 C           7.831079   -4.752947    0.866149 C.ar      1 <1>         0.017321 
      9 C           6.955137   -5.773433    1.118607 C.ar      1 <1>         0.080983 
     10 C           7.373854   -7.182603    0.892240 C.ar      1 <1>        -0.001024 
     11 C           8.582507   -7.480363    0.452429 C.ar      1 <1>         0.088350 
     12 C           9.549556   -6.382873    0.204831 C.ar      1 <1>         0.082794 
     13 O           8.927187   -8.817845    0.239636 O.3       1 <1>        -0.358955 
     14 O           5.669599   -5.511526    1.587227 O.3       1 <1>        -0.359385 
     15 O          10.142045   -4.076872    0.213618 O.3       1 <1>        -0.314985 
     16 C          11.441957   -4.314847   -0.035101 C.2       1 <1>         0.058267 
     17 C          11.912341   -5.547384   -0.269206 C.2       1 <1>         0.052653 
     18 C          10.949270   -6.659952   -0.273578 C.2       1 <1>         0.200581 
     19 O          11.236396   -7.784142   -0.653546 O.2       1 <1>        -0.286389 
     20 C           7.560841   -3.237023    1.002587 C.3       1 <1>        -0.004315 
     21 C           6.210416   -2.646007    1.356660 C.2       1 <1>        -0.080815 
     22 C           5.986669   -1.339203    1.581556 C.2       1 <1>        -0.079306 
     23 C           7.046802   -0.262589    1.467794 C.3       1 <1>        -0.044040 
     24 C           4.613188   -0.830119    1.975398 C.3       1 <1>        -0.044040 
     25 O          17.721661   -6.530139   -1.154352 O.3       1 <1>        -0.347912 
     26 C          18.396283   -7.650829   -0.559439 C.3       1 <1>         0.043026 
     27 H          15.869807   -8.342421   -0.070662 H         1 <1>         0.064346 
     28 H          13.407260   -7.875576    0.335443 H         1 <1>         0.062443 
     29 H          13.884627   -3.794271   -1.474484 H         1 <1>         0.062443 
     30 H          16.364185   -4.244963   -1.794064 H         1 <1>         0.064346 
     31 H           6.678171   -7.991847    1.086582 H         1 <1>         0.066932 
     32 H           9.797241   -8.932104   -0.132078 H         1 <1>         0.217342 
     33 H           5.088776   -6.264075    1.586495 H         1 <1>         0.217328 
     34 H          12.086713   -3.438072   -0.022757 H         1 <1>         0.089749 
     35 H           7.835264   -2.801564    0.028459 H         1 <1>         0.035722 
     36 H           8.281262   -2.890339    1.759583 H         1 <1>         0.035722 
     37 H           5.341895   -3.287985    1.436246 H         1 <1>         0.057473 
     38 H           8.030016   -0.617109    1.130715 H         1 <1>         0.027427 
     39 H           6.706621    0.494502    0.744758 H         1 <1>         0.027427 
     40 H           7.178423    0.223638    2.446035 H         1 <1>         0.027427 
     41 H           3.862760   -1.627063    2.092109 H         1 <1>         0.027427 
     42 H           4.246614   -0.127258    1.212517 H         1 <1>         0.027427 
     43 H           4.686898   -0.297392    2.935695 H         1 <1>         0.027427 
     44 H          18.249780   -7.661697    0.531488 H         1 <1>         0.052869 
     45 H          18.055571   -8.601156   -0.996881 H         1 <1>         0.052869 
     46 H          19.471524   -7.544186   -0.765191 H         1 <1>         0.052869 
@<TRIPOS>BOND
     1    2    1 2    
     2    1    6 1    
     3    1   27 1    
     4    3    2 1    
     5    2   28 1    
     6    3    4 2    
     7   17    3 1    
     8    4    5 1    
     9    4   29 1    
    10    5    6 2    
    11    5   30 1    
    12    6   25 1    
    13    7    8 1    
    14    7   12 2    
    15   15    7 1    
    16    8    9 2    
    17    8   20 1    
    18    9   10 1    
    19    9   14 1    
    20   11   10 2    
    21   10   31 1    
    22   12   11 1    
    23   11   13 1    
    24   12   18 1    
    25   13   32 1    
    26   14   33 1    
    27   16   15 1    
    28   16   17 2    
    29   16   34 1    
    30   17   18 1    
    31   18   19 2    
    32   20   21 1    
    33   20   35 1    
    34   20   36 1    
    35   21   22 2    
    36   21   37 1    
    37   22   23 1    
    38   22   24 1    
    39   23   38 1    
    40   23   39 1    
    41   23   40 1    
    42   24   41 1    
    43   24   42 1    
    44   24   43 1    
    45   25   26 1    
    46   26   44 1    
    47   26   45 1    
    48   26   46 1    
@<TRIPOS>SUBSTRUCTURE
     1 ****        7 TEMP              0 ****  ****    0 ROOT 
@<TRIPOS>NORMAL
@<TRIPOS>FF_PBC
FORCE_FIELD_SETUP_FEATURE Force Field Setup information
v1.0  0 0.000000 0.000000 0.000000 0.000000 0.000000 0.000000 NONE 0 0 0 0 1 0 0 0 0 0 0 0 0
