@<TRIPOS>MOLECULE
MOL001899
   55    54     1     1     0
SMALL
GASTEIGER


@<TRIPOS>ATOM
      1 C           0.221896   -1.511624   -1.781146 C.3       1 <1>        -0.043879 
      2 C           1.670436   -1.004953   -1.494866 C.3       1 <1>        -0.050451 
      3 C          -0.776066   -0.327756   -1.981749 C.3       1 <1>        -0.050451 
      4 C          -0.263019   -2.513719   -0.692205 C.3       1 <1>        -0.062415 
      5 C           1.827262   -0.177096   -0.186987 C.3       1 <1>        -0.052574 
      6 C          -2.053569   -0.731148   -2.772344 C.3       1 <1>        -0.052582 
      7 C           3.276408    0.362285   -0.038105 C.3       1 <1>        -0.050451 
      8 C          -3.037099    0.462600   -2.939302 C.3       1 <1>        -0.050700 
      9 C           3.502090    1.307920    1.184472 C.3       1 <1>        -0.043869 
     10 C          -4.190920    0.176312   -3.949373 C.3       1 <1>        -0.046721 
     11 C           3.222364    0.616783    2.559544 C.3       1 <1>        -0.050076 
     12 C           4.966698    1.835203    1.133342 C.3       1 <1>        -0.062415 
     13 C          -5.053484   -1.050175   -3.538525 C.3       1 <1>        -0.062665 
     14 C          -5.097704    1.430946   -4.091642 C.3       1 <1>        -0.062665 
     15 C           1.810586    0.929389    3.138319 C.3       1 <1>        -0.046143 
     16 C           1.581650    0.194323    4.487473 C.3       1 <1>         0.005552 
     17 C           0.224342    0.477436    5.086446 C.2       1 <1>         0.130322 
     18 C          -0.115737   -0.193900    6.392452 C.3       1 <1>        -0.006065 
     19 O          -0.578724    1.211568    4.536088 O.2       1 <1>        -0.297704 
     20 H           0.284294   -2.070810   -2.732484 H         1 <1>         0.029813 
     21 H           1.995067   -0.388007   -2.349119 H         1 <1>         0.026785 
     22 H           2.347563   -1.873761   -1.444274 H         1 <1>         0.026785 
     23 H          -1.071614    0.084747   -1.004784 H         1 <1>         0.026785 
     24 H          -0.274941    0.472663   -2.550159 H         1 <1>         0.026785 
     25 H          -1.184276   -3.026240   -1.005769 H         1 <1>         0.023242 
     26 H           0.501671   -3.285877   -0.515059 H         1 <1>         0.023242 
     27 H          -0.468177   -2.002253    0.260238 H         1 <1>         0.023242 
     28 H           1.591223   -0.826713    0.668125 H         1 <1>         0.026545 
     29 H           1.137741    0.681216   -0.191537 H         1 <1>         0.026545 
     30 H          -1.756175   -1.091713   -3.770550 H         1 <1>         0.026545 
     31 H          -2.563556   -1.548754   -2.242511 H         1 <1>         0.026545 
     32 H           3.520842    0.923688   -0.955237 H         1 <1>         0.026785 
     33 H           3.969720   -0.491737    0.027044 H         1 <1>         0.026785 
     34 H          -3.459298    0.718632   -1.953551 H         1 <1>         0.026777 
     35 H          -2.473536    1.338362   -3.301624 H         1 <1>         0.026777 
     36 H           2.846075    2.189654    1.078107 H         1 <1>         0.029813 
     37 H          -3.750548   -0.030329   -4.940360 H         1 <1>         0.029548 
     38 H           3.947585    0.968930    3.310863 H         1 <1>         0.026796 
     39 H           3.365985   -0.471706    2.467507 H         1 <1>         0.026796 
     40 H           5.149181    2.565865    1.937441 H         1 <1>         0.023242 
     41 H           5.169950    2.336840    0.174217 H         1 <1>         0.023242 
     42 H           5.676689    1.001671    1.249334 H         1 <1>         0.023242 
     43 H          -5.904786   -1.169017   -4.227087 H         1 <1>         0.023233 
     44 H          -4.470837   -1.982714   -3.577147 H         1 <1>         0.023233 
     45 H          -5.445144   -0.916723   -2.518628 H         1 <1>         0.023233 
     46 H          -5.888402    1.255551   -4.838829 H         1 <1>         0.023233 
     47 H          -4.508776    2.302552   -4.417807 H         1 <1>         0.023233 
     48 H          -5.574565    1.669917   -3.128285 H         1 <1>         0.023233 
     49 H           1.018767    0.631787    2.435558 H         1 <1>         0.026935 
     50 H           1.718950    2.015351    3.308277 H         1 <1>         0.026935 
     51 H           2.350248    0.509860    5.210115 H         1 <1>         0.034143 
     52 H           1.672556   -0.891715    4.331049 H         1 <1>         0.034143 
     53 H          -1.044820    0.223351    6.810059 H         1 <1>         0.030578 
     54 H           0.694158   -0.045136    7.121767 H         1 <1>         0.030578 
     55 H          -0.256225   -1.271828    6.224110 H         1 <1>         0.030578 
@<TRIPOS>BOND
     1    1    2 1    
     2    1    3 1    
     3    1    4 1    
     4    1   20 1    
     5    2    5 1    
     6    2   21 1    
     7    2   22 1    
     8    3    6 1    
     9    3   23 1    
    10    3   24 1    
    11    4   25 1    
    12    4   26 1    
    13    4   27 1    
    14    5    7 1    
    15    5   28 1    
    16    5   29 1    
    17    6    8 1    
    18    6   30 1    
    19    6   31 1    
    20    7    9 1    
    21    7   32 1    
    22    7   33 1    
    23    8   10 1    
    24    8   34 1    
    25    8   35 1    
    26    9   11 1    
    27    9   12 1    
    28    9   36 1    
    29   10   13 1    
    30   10   14 1    
    31   10   37 1    
    32   11   15 1    
    33   11   38 1    
    34   11   39 1    
    35   12   40 1    
    36   12   41 1    
    37   12   42 1    
    38   13   43 1    
    39   13   44 1    
    40   13   45 1    
    41   14   46 1    
    42   14   47 1    
    43   14   48 1    
    44   15   16 1    
    45   15   49 1    
    46   15   50 1    
    47   16   17 1    
    48   16   51 1    
    49   16   52 1    
    50   17   18 1    
    51   17   19 2    
    52   18   53 1    
    53   18   54 1    
    54   18   55 1    
@<TRIPOS>SUBSTRUCTURE
     1 ****        1 TEMP              0 ****  ****    0 ROOT 
@<TRIPOS>NORMAL
@<TRIPOS>FF_PBC
FORCE_FIELD_SETUP_FEATURE Force Field Setup information
v1.0  0 0.000000 0.000000 0.000000 0.000000 0.000000 0.000000 NONE 0 0 0 0 1 0 0 0 0 0 0 0 0
