@<TRIPOS>MOLECULE
MOL000717
   29    29     1     1     0
SMALL
GASTEIGER


@<TRIPOS>ATOM
      1 C           0.912200   -0.819661    0.261580 C.2       1 <1>         0.136912 
      2 C          -0.300405    0.017142    0.609576 C.3       1 <1>         0.019844 
      3 C          -0.850910    0.581259   -0.732374 C.3       1 <1>        -0.043022 
      4 C          -1.085567   -0.548322   -1.775103 C.3       1 <1>        -0.049429 
      5 C           0.184448   -1.409404   -2.028937 C.3       1 <1>        -0.037186 
      6 C           0.696425   -1.974494   -0.678750 C.3       1 <1>         0.008689 
      7 C           1.303791   -0.614995   -2.759770 C.3       1 <1>        -0.062029 
      8 C           0.029465    1.123631    1.665328 C.3       1 <1>        -0.037204 
      9 C          -1.129850    2.144638    1.853071 C.3       1 <1>        -0.062026 
     10 C           0.356557    0.482651    3.046780 C.3       1 <1>        -0.062026 
     11 O           2.028448   -0.576146    0.691220 O.2       1 <1>        -0.297097 
     12 H          -1.067815   -0.648668    1.037093 H         1 <1>         0.037978 
     13 H          -0.152153    1.333127   -1.130520 H         1 <1>         0.027212 
     14 H          -1.823388    1.074182   -0.573025 H         1 <1>         0.027212 
     15 H          -1.433261   -0.109939   -2.725431 H         1 <1>         0.026815 
     16 H          -1.886496   -1.208166   -1.400431 H         1 <1>         0.026815 
     17 H          -0.095325   -2.256077   -2.682028 H         1 <1>         0.030213 
     18 H           1.631787   -2.537979   -0.824927 H         1 <1>         0.034424 
     19 H          -0.047876   -2.657679   -0.240101 H         1 <1>         0.034424 
     20 H           0.918071   -0.186258   -3.697652 H         1 <1>         0.023252 
     21 H           1.700412    0.201270   -2.139120 H         1 <1>         0.023252 
     22 H           2.140260   -1.286840   -3.008474 H         1 <1>         0.023252 
     23 H           0.915008    1.686631    1.321511 H         1 <1>         0.030216 
     24 H          -1.265701    2.768812    0.957168 H         1 <1>         0.023252 
     25 H          -0.912931    2.826469    2.690013 H         1 <1>         0.023252 
     26 H          -2.071810    1.617832    2.069967 H         1 <1>         0.023252 
     27 H           1.182753   -0.239547    2.980383 H         1 <1>         0.023252 
     28 H           0.650712    1.258393    3.770953 H         1 <1>         0.023252 
     29 H          -0.526850   -0.041866    3.442098 H         1 <1>         0.023252 
@<TRIPOS>BOND
     1    1    2 1    
     2    1    6 1    
     3    1   11 2    
     4    2    3 1    
     5    2    8 1    
     6    2   12 1    
     7    3    4 1    
     8    3   13 1    
     9    3   14 1    
    10    4    5 1    
    11    4   15 1    
    12    4   16 1    
    13    5    6 1    
    14    5    7 1    
    15    5   17 1    
    16    6   18 1    
    17    6   19 1    
    18    7   20 1    
    19    7   21 1    
    20    7   22 1    
    21    8    9 1    
    22    8   10 1    
    23    8   23 1    
    24    9   24 1    
    25    9   25 1    
    26    9   26 1    
    27   10   27 1    
    28   10   28 1    
    29   10   29 1    
@<TRIPOS>SUBSTRUCTURE
     1 ****        1 TEMP              0 ****  ****    0 ROOT 
@<TRIPOS>NORMAL
@<TRIPOS>FF_PBC
FORCE_FIELD_SETUP_FEATURE Force Field Setup information
v1.0  0 0.000000 0.000000 0.000000 0.000000 0.000000 0.000000 NONE 0 0 0 0 1 0 0 0 0 0 0 0 0
