@<TRIPOS>MOLECULE
MOL002927
   45    47     1     1     0
SMALL
GASTEIGER


@<TRIPOS>ATOM
      1 C          -0.324525    0.876965    0.084656 C.ar      1 <1>         0.128908 
      2 C           0.135954    2.207402   -0.360924 C.ar      1 <1>         0.087039 
      3 C          -1.705099    0.693744    0.442102 C.ar      1 <1>         0.139625 
      4 O           0.593267   -0.181174    0.160628 O.3       1 <1>        -0.304954 
      5 C          -0.733594    3.299279   -0.413471 C.ar      1 <1>         0.118646 
      6 C           1.588269    2.302974   -0.746129 C.2       1 <1>         0.193682 
      7 C          -2.645262    1.849118    0.359193 C.ar      1 <1>         0.140841 
      8 O          -2.194248   -0.546909    0.874847 O.3       1 <1>        -0.342861 
      9 C           1.896211   -0.063842   -0.156996 C.2       1 <1>         0.098920 
     10 C          -2.159055    3.133829   -0.047065 C.ar      1 <1>         0.138848 
     11 O          -0.264118    4.552012   -0.816142 O.3       1 <1>        -0.356587 
     12 C           2.401555    1.091198   -0.611776 C.2       1 <1>         0.017090 
     13 O           2.090623    3.337390   -1.154510 O.2       1 <1>        -0.287015 
     14 O          -4.002373    1.693384    0.673673 O.3       1 <1>        -0.342828 
     15 C          -1.606337   -1.775393    0.431024 C.3       1 <1>         0.043244 
     16 C           2.810577   -1.260932   -0.000228 C.ar      1 <1>         0.065157 
     17 O          -2.975018    4.274924   -0.130961 O.3       1 <1>        -0.342879 
     18 C          -4.724348    0.527318    0.246521 C.3       1 <1>         0.043244 
     19 C           2.374656   -2.616366   -0.424351 C.ar      1 <1>         0.087897 
     20 C           4.103042   -1.074957    0.561896 C.ar      1 <1>         0.084674 
     21 C          -4.389545    4.268337    0.109916 C.3       1 <1>         0.043244 
     22 C           3.287242   -3.700846   -0.306583 C.ar      1 <1>        -0.030865 
     23 O           1.080020   -2.795713   -0.931626 O.3       1 <1>        -0.347157 
     24 C           5.041696   -2.219875    0.666425 C.ar      1 <1>        -0.031113 
     25 O           4.479757    0.190731    1.016923 O.3       1 <1>        -0.359077 
     26 C           4.646002   -3.487137    0.241535 C.ar      1 <1>        -0.056851 
     27 C           0.462297   -4.095541   -0.880851 C.3       1 <1>         0.043053 
     28 H          -0.953398    5.209670   -0.780251 H         1 <1>         0.217446 
     29 H           3.445556    1.179140   -0.907830 H         1 <1>         0.068221 
     30 H          -2.318643   -2.582251    0.650791 H         1 <1>         0.052872 
     31 H          -1.427860   -1.741521   -0.654065 H         1 <1>         0.052872 
     32 H          -0.676968   -1.990069    0.975678 H         1 <1>         0.052872 
     33 H          -5.794897    0.762257    0.328998 H         1 <1>         0.052872 
     34 H          -4.527683   -0.341638    0.888580 H         1 <1>         0.052872 
     35 H          -4.495176    0.282911   -0.801861 H         1 <1>         0.052872 
     36 H          -4.752700    5.293147   -0.057747 H         1 <1>         0.052872 
     37 H          -4.911252    3.599581   -0.592462 H         1 <1>         0.052872 
     38 H          -4.616295    3.990517    1.150951 H         1 <1>         0.052872 
     39 H           3.021637   -4.703900   -0.610009 H         1 <1>         0.064349 
     40 H           6.038426   -2.071532    1.070867 H         1 <1>         0.064342 
     41 H           5.326092    0.206881    1.448837 H         1 <1>         0.217340 
     42 H           5.332982   -4.324839    0.312942 H         1 <1>         0.061916 
     43 H          -0.584769   -4.004817   -1.200263 H         1 <1>         0.052870 
     44 H           0.945418   -4.810530   -1.562311 H         1 <1>         0.052870 
     45 H           0.482180   -4.481351    0.150448 H         1 <1>         0.052870 
@<TRIPOS>BOND
     1    1    2 1    
     2    1    3 2    
     3    1    4 1    
     4    2    5 2    
     5    2    6 1    
     6    3    7 1    
     7    3    8 1    
     8    4    9 1    
     9    5   10 1    
    10    5   11 1    
    11    6   12 1    
    12    6   13 2    
    13    7   10 2    
    14    7   14 1    
    15    8   15 1    
    16    9   12 2    
    17    9   16 1    
    18   10   17 1    
    19   11   28 1    
    20   12   29 1    
    21   14   18 1    
    22   15   30 1    
    23   15   31 1    
    24   15   32 1    
    25   16   19 1    
    26   16   20 2    
    27   17   21 1    
    28   18   33 1    
    29   18   34 1    
    30   18   35 1    
    31   19   22 2    
    32   19   23 1    
    33   20   24 1    
    34   20   25 1    
    35   21   36 1    
    36   21   37 1    
    37   21   38 1    
    38   22   26 1    
    39   22   39 1    
    40   23   27 1    
    41   24   26 2    
    42   24   40 1    
    43   25   41 1    
    44   26   42 1    
    45   27   43 1    
    46   27   44 1    
    47   27   45 1    
@<TRIPOS>SUBSTRUCTURE
     1 ****        1 TEMP              0 ****  ****    0 ROOT 
@<TRIPOS>NORMAL
@<TRIPOS>FF_PBC
FORCE_FIELD_SETUP_FEATURE Force Field Setup information
v1.0  0 0.000000 0.000000 0.000000 0.000000 0.000000 0.000000 NONE 0 0 0 0 1 0 0 0 0 0 0 0 0
