@<TRIPOS>MOLECULE
MOL004947
   71    75     1     1     0
SMALL
GASTEIGER


@<TRIPOS>ATOM
      1 O           0.086767    2.118444   -0.896799 O.3       1 <1>        -0.361023 
      2 O           3.633835   -1.256830    1.347811 O.3       1 <1>        -0.363572 
      3 O          -1.844426    1.123962    2.123076 O.3       1 <1>        -0.386221 
      4 O          -1.572231    4.007234    2.509345 O.3       1 <1>        -0.386477 
      5 O           3.353559   -2.172681   -2.268555 O.3       1 <1>        -0.386221 
      6 O          -0.848723    5.571691    0.156512 O.3       1 <1>        -0.386490 
      7 O           6.072142   -1.159848   -2.126746 O.3       1 <1>        -0.386479 
      8 O           5.654403    0.510326    0.106321 O.3       1 <1>        -0.386582 
      9 O          -2.611097   -0.954050   -0.123360 O.3       1 <1>        -0.307351 
     10 O           2.015853    0.725607    0.103025 O.3       1 <1>        -0.358948 
     11 O           1.186508   -4.112897   -0.061523 O.3       1 <1>        -0.358595 
     12 O           0.710949    3.655009   -3.282843 O.3       1 <1>        -0.392367 
     13 O          -1.399498   -4.822049   -0.251946 O.2       1 <1>        -0.287017 
     14 O          -9.140211   -0.548945   -0.350162 O.3       1 <1>        -0.359832 
     15 C          -0.855499    1.340671   -0.127633 C.3       1 <1>         0.117298 
     16 C           3.133036   -1.922576    0.170988 C.3       1 <1>         0.117161 
     17 C          -0.972325    1.922259    1.302917 C.3       1 <1>         0.113849 
     18 C          -1.434751    3.403047    1.209756 C.3       1 <1>         0.112059 
     19 C           3.867857   -1.468410   -1.119548 C.3       1 <1>         0.113846 
     20 C          -0.450754    4.195361    0.304226 C.3       1 <1>         0.111744 
     21 C           5.399291   -1.653764   -0.950495 C.3       1 <1>         0.111970 
     22 C          -0.314214    3.494520   -1.075466 C.3       1 <1>         0.110816 
     23 C           5.853664   -0.899122    0.329928 C.3       1 <1>         0.109327 
     24 C          -0.335626   -0.099239   -0.064397 C.ar      1 <1>         0.045039 
     25 C           5.048526   -1.444906    1.547155 C.3       1 <1>         0.085115 
     26 C           1.624815   -1.662336    0.051824 C.ar      1 <1>         0.044267 
     27 C           1.127932   -0.347820    0.029282 C.ar      1 <1>         0.088992 
     28 C          -1.228289   -1.179414   -0.096979 C.ar      1 <1>         0.104556 
     29 C           0.684476   -2.807350   -0.040716 C.ar      1 <1>         0.094068 
     30 C          -0.695478   -2.555895   -0.110209 C.ar      1 <1>         0.082655 
     31 C           0.746140    4.206761   -1.953859 C.3       1 <1>         0.072938 
     32 C           5.432104   -0.763422    2.884377 C.3       1 <1>        -0.036137 
     33 C          -1.727590   -3.647736   -0.214437 C.2       1 <1>         0.193529 
     34 C          -3.506927   -1.954830   -0.221484 C.2       1 <1>         0.093878 
     35 C          -3.133881   -3.241282   -0.268825 C.2       1 <1>         0.016919 
     36 C          -4.976532   -1.594676   -0.270299 C.ar      1 <1>         0.005751 
     37 C          -5.850133   -2.208190   -1.180492 C.ar      1 <1>        -0.049682 
     38 C          -5.504945   -0.571465    0.664345 C.ar      1 <1>        -0.049682 
     39 C          -7.285866   -1.838382   -1.195863 C.ar      1 <1>        -0.031304 
     40 C          -6.861266   -0.222949    0.649232 C.ar      1 <1>        -0.031304 
     41 C          -7.783735   -0.877001   -0.312918 C.ar      1 <1>         0.072619 
     42 H          -1.835683    1.346207   -0.631884 H         1 <1>         0.067491 
     43 H           3.293711   -3.003780    0.304877 H         1 <1>         0.067489 
     44 H           0.024261    1.889168    1.773333 H         1 <1>         0.064945 
     45 H          -2.437084    3.433919    0.752670 H         1 <1>         0.064684 
     46 H           3.689329   -0.396474   -1.293986 H         1 <1>         0.064945 
     47 H           0.539299    4.200266    0.787891 H         1 <1>         0.064671 
     48 H           5.615634   -2.731096   -0.845979 H         1 <1>         0.064682 
     49 H          -1.273263    3.545659   -1.618400 H         1 <1>         0.064591 
     50 H           6.930205   -1.087976    0.483176 H         1 <1>         0.064582 
     51 H           5.268793   -2.520134    1.666775 H         1 <1>         0.061999 
     52 H           1.742718    4.057626   -1.505707 H         1 <1>         0.058369 
     53 H           0.532731    5.288060   -2.000488 H         1 <1>         0.058369 
     54 H           5.110877    0.287353    2.894033 H         1 <1>         0.025535 
     55 H           6.519172   -0.811494    3.049880 H         1 <1>         0.025535 
     56 H           4.928296   -1.276178    3.718088 H         1 <1>         0.025535 
     57 H          -2.733636    1.091993    1.789402 H         1 <1>         0.210016 
     58 H          -0.755883    4.033468    2.996951 H         1 <1>         0.210004 
     59 H           3.488270   -3.113190   -2.223206 H         1 <1>         0.210016 
     60 H          -1.713542    5.674651   -0.226907 H         1 <1>         0.210004 
     61 H           7.019090   -1.236073   -2.075843 H         1 <1>         0.210004 
     62 H           5.957692    1.059196    0.819929 H         1 <1>         0.210002 
     63 H           1.698126    1.473758   -0.395770 H         1 <1>         0.217342 
     64 H          -3.873827   -4.038531   -0.338517 H         1 <1>         0.068219 
     65 H           0.517555   -4.786990   -0.143015 H         1 <1>         0.217355 
     66 H           1.354561    4.047737   -3.864934 H         1 <1>         0.209508 
     67 H          -5.487750   -2.951560   -1.883196 H         1 <1>         0.062503 
     68 H          -4.836118   -0.094572    1.370102 H         1 <1>         0.062503 
     69 H          -7.960353   -2.315348   -1.897895 H         1 <1>         0.064339 
     70 H          -7.235716    0.523083    1.341975 H         1 <1>         0.064339 
     71 H          -9.384425    0.127126    0.271578 H         1 <1>         0.217313 
@<TRIPOS>BOND
     1   15    1 1    
     2    1   22 1    
     3   16    2 1    
     4    2   25 1    
     5   17    3 1    
     6    3   57 1    
     7   18    4 1    
     8    4   58 1    
     9   19    5 1    
    10    5   59 1    
    11   20    6 1    
    12    6   60 1    
    13   21    7 1    
    14    7   61 1    
    15   23    8 1    
    16    8   62 1    
    17    9   28 1    
    18   34    9 1    
    19   27   10 1    
    20   10   63 1    
    21   29   11 1    
    22   11   65 1    
    23   31   12 1    
    24   12   66 1    
    25   33   13 2    
    26   41   14 1    
    27   14   71 1    
    28   15   17 1    
    29   24   15 1    
    30   15   42 1    
    31   16   19 1    
    32   26   16 1    
    33   16   43 1    
    34   17   18 1    
    35   17   44 1    
    36   18   20 1    
    37   18   45 1    
    38   19   21 1    
    39   19   46 1    
    40   22   20 1    
    41   20   47 1    
    42   21   23 1    
    43   21   48 1    
    44   22   31 1    
    45   22   49 1    
    46   25   23 1    
    47   23   50 1    
    48   24   27 1    
    49   28   24 2    
    50   25   32 1    
    51   25   51 1    
    52   27   26 2    
    53   29   26 1    
    54   28   30 1    
    55   30   29 2    
    56   33   30 1    
    57   31   52 1    
    58   31   53 1    
    59   32   54 1    
    60   32   55 1    
    61   32   56 1    
    62   35   33 1    
    63   34   35 2    
    64   36   34 1    
    65   35   64 1    
    66   37   36 2    
    67   36   38 1    
    68   39   37 1    
    69   37   67 1    
    70   38   40 2    
    71   38   68 1    
    72   39   41 2    
    73   39   69 1    
    74   40   41 1    
    75   40   70 1    
@<TRIPOS>SUBSTRUCTURE
     1 ****        2 TEMP              0 ****  ****    0 ROOT 
@<TRIPOS>NORMAL
@<TRIPOS>FF_PBC
FORCE_FIELD_SETUP_FEATURE Force Field Setup information
v1.0  0 0.000000 0.000000 0.000000 0.000000 0.000000 0.000000 NONE 0 0 0 0 1 0 0 0 0 0 0 0 0
