@<TRIPOS>MOLECULE
MOL006133
   50    50     1     1     0
SMALL
GASTEIGER


@<TRIPOS>ATOM
      1 C           5.762187    3.841011   -1.464218 C.3       1 <1>        -0.053306 
      2 C           4.233927    4.043454   -1.280930 C.3       1 <1>        -0.053056 
      3 C           3.539960    2.711784   -0.889176 C.3       1 <1>        -0.052779 
      4 C           2.010815    2.903589   -0.695094 C.3       1 <1>        -0.049605 
      5 C           1.348163    1.584018   -0.215109 C.3       1 <1>        -0.034364 
      6 C          -0.136880    1.739062    0.013748 C.2       1 <1>        -0.080720 
      7 C          -1.002713    0.722902   -0.106782 C.2       1 <1>        -0.023134 
      8 C          -2.457069    0.884522    0.123239 C.2       1 <1>         0.156107 
      9 C          -3.429109   -0.261821    0.296173 C.3       1 <1>         0.013833 
     10 C          -2.786312   -1.662286    0.468473 C.3       1 <1>        -0.020607 
     11 C          -3.764559   -2.790837    0.831676 C.ar      1 <1>        -0.044352 
     12 C          -5.240491   -2.631805    0.844106 C.ar      1 <1>        -0.055970 
     13 C          -6.066471   -3.710329    1.197597 C.ar      1 <1>        -0.029141 
     14 C          -5.492966   -5.033125    1.558997 C.ar      1 <1>         0.102451 
     15 C          -4.069413   -5.196807    1.539235 C.ar      1 <1>         0.105659 
     16 C          -3.219081   -4.043802    1.170338 C.ar      1 <1>        -0.025965 
     17 O          -6.341630   -6.089109    1.908804 O.3       1 <1>        -0.357269 
     18 O          -3.428325   -6.404913    1.853410 O.3       1 <1>        -0.345341 
     19 C          -4.143231   -7.601224    2.192110 C.3       1 <1>         0.043136 
     20 O          -2.913536    2.015670    0.182940 O.2       1 <1>        -0.292681 
     21 C           6.468379    5.179270   -1.810430 C.3       1 <1>        -0.055911 
     22 C           7.993057    4.966753   -1.992277 C.3       1 <1>        -0.065276 
     23 H           5.940291    3.112503   -2.272627 H         1 <1>         0.026520 
     24 H           6.192592    3.435855   -0.533340 H         1 <1>         0.026520 
     25 H           4.059756    4.790338   -0.488864 H         1 <1>         0.026528 
     26 H           3.798766    4.424176   -2.219646 H         1 <1>         0.026528 
     27 H           3.718346    1.958681   -1.675156 H         1 <1>         0.026538 
     28 H           3.981927    2.340854    0.050753 H         1 <1>         0.026538 
     29 H           1.834190    3.690593    0.057386 H         1 <1>         0.026822 
     30 H           1.550475    3.222954   -1.645132 H         1 <1>         0.026822 
     31 H           1.543721    0.792697   -0.957040 H         1 <1>         0.030742 
     32 H           1.800315    1.282057    0.743058 H         1 <1>         0.030742 
     33 H          -0.510872    2.722927    0.302379 H         1 <1>         0.057307 
     34 H          -0.604100   -0.251512   -0.381721 H         1 <1>         0.064910 
     35 H          -4.010182   -0.035625    1.203776 H         1 <1>         0.034806 
     36 H          -4.105822   -0.259068   -0.572504 H         1 <1>         0.034806 
     37 H          -2.289477   -1.958001   -0.468285 H         1 <1>         0.031731 
     38 H          -2.034660   -1.604633    1.272704 H         1 <1>         0.031731 
     39 H          -5.705295   -1.689158    0.582156 H         1 <1>         0.062110 
     40 H          -7.142303   -3.569952    1.202410 H         1 <1>         0.064412 
     41 H          -2.143936   -4.181583    1.165516 H         1 <1>         0.064684 
     42 H          -7.263482   -5.862216    1.910524 H         1 <1>         0.217422 
     43 H          -3.401491   -8.393431    2.370439 H         1 <1>         0.052871 
     44 H          -4.727172   -7.462858    3.114159 H         1 <1>         0.052871 
     45 H          -4.795418   -7.919040    1.364777 H         1 <1>         0.052871 
     46 H           6.299152    5.908327   -1.000251 H         1 <1>         0.026265 
     47 H           6.044759    5.593180   -2.740736 H         1 <1>         0.026265 
     48 H           8.484949    5.922001   -2.232641 H         1 <1>         0.022978 
     49 H           8.184435    4.257056   -2.811683 H         1 <1>         0.022978 
     50 H           8.436232    4.566806   -1.067339 H         1 <1>         0.022978 
@<TRIPOS>BOND
     1    1    2 1    
     2    1   21 1    
     3    1   23 1    
     4    1   24 1    
     5    2    3 1    
     6    2   25 1    
     7    2   26 1    
     8    3    4 1    
     9    3   27 1    
    10    3   28 1    
    11    4    5 1    
    12    4   29 1    
    13    4   30 1    
    14    5    6 1    
    15    5   31 1    
    16    5   32 1    
    17    6    7 2    
    18    6   33 1    
    19    7    8 1    
    20    7   34 1    
    21    8    9 1    
    22    8   20 2    
    23    9   10 1    
    24    9   35 1    
    25    9   36 1    
    26   10   11 1    
    27   10   37 1    
    28   10   38 1    
    29   11   12 1    
    30   11   16 2    
    31   12   13 2    
    32   12   39 1    
    33   13   14 1    
    34   13   40 1    
    35   14   15 2    
    36   14   17 1    
    37   15   16 1    
    38   15   18 1    
    39   16   41 1    
    40   17   42 1    
    41   18   19 1    
    42   19   43 1    
    43   19   44 1    
    44   19   45 1    
    45   21   22 1    
    46   21   46 1    
    47   21   47 1    
    48   22   48 1    
    49   22   49 1    
    50   22   50 1    
@<TRIPOS>SUBSTRUCTURE
     1 ****        1 TEMP              0 ****  ****    0 ROOT 
@<TRIPOS>NORMAL
@<TRIPOS>FF_PBC
FORCE_FIELD_SETUP_FEATURE Force Field Setup information
v1.0  0 0.000000 0.000000 0.000000 0.000000 0.000000 0.000000 NONE 0 0 0 0 1 0 0 0 0 0 0 0 0
