@<TRIPOS>MOLECULE
MOL000478
   25    25     1     1     0
SMALL
GASTEIGER


@<TRIPOS>ATOM
      1 C           0.698270    1.273105    0.043846 C.2       1 <1>         0.159765 
      2 C           1.891140    0.413475   -0.039641 C.2       1 <1>        -0.008043 
      3 C           1.827252   -0.923580    0.038310 C.2       1 <1>        -0.055816 
      4 C           0.658627   -1.823099    0.174640 C.2       1 <1>        -0.064815 
      5 C          -0.659747   -1.574494    0.192114 C.2       1 <1>        -0.077927 
      6 C          -1.344068   -0.226713    0.094301 C.3       1 <1>        -0.009618 
      7 C          -0.518534    0.867437    0.823486 C.3       1 <1>         0.018713 
      8 O           0.703315    2.353673   -0.525101 O.2       1 <1>        -0.292375 
      9 C          -2.738436   -0.324785    0.785701 C.3       1 <1>        -0.055940 
     10 C          -1.542702    0.118423   -1.408332 C.3       1 <1>        -0.055940 
     11 C           3.240777    1.074544   -0.220900 C.3       1 <1>        -0.036408 
     12 H           2.782409   -1.449906   -0.017973 H         1 <1>         0.062116 
     13 H           0.934385   -2.877270    0.265083 H         1 <1>         0.061475 
     14 H          -1.315560   -2.444531    0.276136 H         1 <1>         0.057754 
     15 H          -0.205869    0.499039    1.813094 H         1 <1>         0.035325 
     16 H          -1.129897    1.770139    0.982837 H         1 <1>         0.035325 
     17 H          -2.618738   -0.585571    1.848843 H         1 <1>         0.023805 
     18 H          -3.277539    0.633011    0.721201 H         1 <1>         0.023805 
     19 H          -3.366249   -1.094005    0.309540 H         1 <1>         0.023805 
     20 H          -0.581174    0.117587   -1.944249 H         1 <1>         0.023805 
     21 H          -2.002827    1.112817   -1.514783 H         1 <1>         0.023805 
     22 H          -2.197539   -0.624369   -1.889435 H         1 <1>         0.023805 
     23 H           3.182483    2.167440   -0.105568 H         1 <1>         0.027859 
     24 H           3.956772    0.696211    0.524859 H         1 <1>         0.027859 
     25 H           3.623450    0.851126   -1.228208 H         1 <1>         0.027859 
@<TRIPOS>BOND
     1    1    2 1    
     2    1    7 1    
     3    1    8 2    
     4    2    3 2    
     5    2   11 1    
     6    3    4 1    
     7    3   12 1    
     8    4    5 2    
     9    4   13 1    
    10    5    6 1    
    11    5   14 1    
    12    6    7 1    
    13    6    9 1    
    14    6   10 1    
    15    7   15 1    
    16    7   16 1    
    17    9   17 1    
    18    9   18 1    
    19    9   19 1    
    20   10   20 1    
    21   10   21 1    
    22   10   22 1    
    23   11   23 1    
    24   11   24 1    
    25   11   25 1    
@<TRIPOS>SUBSTRUCTURE
     1 ****        1 TEMP              0 ****  ****    0 ROOT 
@<TRIPOS>NORMAL
@<TRIPOS>FF_PBC
FORCE_FIELD_SETUP_FEATURE Force Field Setup information
v1.0  0 0.000000 0.000000 0.000000 0.000000 0.000000 0.000000 NONE 0 0 0 0 1 0 0 0 0 0 0 0 0
