@<TRIPOS>MOLECULE
MOL002105
   33    34     1     1     0
SMALL
GASTEIGER


@<TRIPOS>ATOM
      1 C           1.608402   -2.234085    0.201593 C.2       1 <1>         0.297670 
      2 O           2.318508   -1.114843    0.071848 O.3       1 <1>        -0.274059 
      3 C           1.339275   -0.222184   -0.142383 C.2       1 <1>         0.088651 
      4 C          -0.026182   -0.796583   -0.174156 C.2       1 <1>        -0.005499 
      5 C          -1.386960   -0.195011   -0.412348 C.3       1 <1>        -0.022273 
      6 C          -2.416422   -1.320205   -0.710168 C.3       1 <1>        -0.020013 
      7 C          -2.273529   -2.474255    0.317973 C.3       1 <1>         0.085679 
      8 C          -0.890948   -3.159794    0.139789 C.3       1 <1>         0.111861 
      9 C           0.163400   -2.091999    0.057541 C.2       1 <1>         0.060724 
     10 O           2.132581   -3.312707    0.423573 O.2       1 <1>        -0.259073 
     11 C           1.684165    1.063847   -0.300543 C.2       1 <1>        -0.024945 
     12 C           0.758571    2.237045   -0.512802 C.3       1 <1>         0.075766 
     13 C           1.429191    3.581709   -0.111126 C.3       1 <1>        -0.025998 
     14 C           1.771908    3.636643    1.401910 C.3       1 <1>        -0.062640 
     15 O           0.430290    2.243733   -1.912248 O.3       1 <1>        -0.387686 
     16 O          -0.896205   -3.921282   -1.081844 O.3       1 <1>        -0.384407 
     17 O          -2.414511   -1.906575    1.634719 O.3       1 <1>        -0.388882 
     18 H          -1.370355    0.506005   -1.260426 H         1 <1>         0.031491 
     19 H          -1.695094    0.339416    0.500002 H         1 <1>         0.031491 
     20 H          -3.437255   -0.905410   -0.667340 H         1 <1>         0.029412 
     21 H          -2.250933   -1.719034   -1.725026 H         1 <1>         0.029412 
     22 H          -3.068167   -3.221790    0.142364 H         1 <1>         0.062249 
     23 H          -0.692099   -3.824206    0.997885 H         1 <1>         0.067144 
     24 H           2.754393    1.271675   -0.280077 H         1 <1>         0.062341 
     25 H          -0.143794    2.124338    0.107422 H         1 <1>         0.063824 
     26 H           2.343945    3.727840   -0.708739 H         1 <1>         0.029052 
     27 H           0.740122    4.411429   -0.341400 H         1 <1>         0.029052 
     28 H           2.222904    4.610763    1.649164 H         1 <1>         0.023066 
     29 H           0.860255    3.511469    2.006785 H         1 <1>         0.023066 
     30 H           2.486332    2.846051    1.676570 H         1 <1>         0.023066 
     31 H          -0.173092    2.939092   -2.154718 H         1 <1>         0.210208 
     32 H          -0.068611   -4.364440   -1.247101 H         1 <1>         0.210347 
     33 H          -2.382611   -2.552718    2.333441 H         1 <1>         0.209902 
@<TRIPOS>BOND
     1    1    2 1    
     2    1    9 1    
     3    1   10 2    
     4    2    3 1    
     5    3    4 1    
     6    3   11 2    
     7    4    5 1    
     8    4    9 2    
     9    5    6 1    
    10    5   18 1    
    11    5   19 1    
    12    6    7 1    
    13    6   20 1    
    14    6   21 1    
    15    7    8 1    
    16    7   17 1    
    17    7   22 1    
    18    8    9 1    
    19    8   16 1    
    20    8   23 1    
    21   11   12 1    
    22   11   24 1    
    23   12   13 1    
    24   12   15 1    
    25   12   25 1    
    26   13   14 1    
    27   13   26 1    
    28   13   27 1    
    29   14   28 1    
    30   14   29 1    
    31   14   30 1    
    32   15   31 1    
    33   16   32 1    
    34   17   33 1    
@<TRIPOS>SUBSTRUCTURE
     1 ****        1 TEMP              0 ****  ****    0 ROOT 
@<TRIPOS>NORMAL
@<TRIPOS>FF_PBC
FORCE_FIELD_SETUP_FEATURE Force Field Setup information
v1.0  0 0.000000 0.000000 0.000000 0.000000 0.000000 0.000000 NONE 0 0 0 0 1 0 0 0 0 0 0 0 0
