@<TRIPOS>MOLECULE
MOL006502
   61    63     1     1     0
SMALL
GASTEIGER


@<TRIPOS>ATOM
      1 O          -2.215711    0.936100   -0.928769 O.3       1 <1>        -0.305768 
      2 O           2.013153    0.974019   -1.141851 O.3       1 <1>        -0.305768 
      3 O           1.327254    1.693212    1.334788 O.3       1 <1>        -0.378361 
      4 O          -0.199724    0.654146   -2.836904 O.3       1 <1>        -0.386616 
      5 O          -0.065194    5.065198    1.399718 O.3       1 <1>        -0.329104 
      6 O           1.239363    3.934704    2.825308 O.2       1 <1>        -0.261963 
      7 O          -2.413180   -0.082933    1.057297 O.2       1 <1>        -0.259868 
      8 O           3.933092    2.092997   -1.412662 O.2       1 <1>        -0.259868 
      9 O          -9.491532   -2.589211    2.162334 O.3       1 <1>        -0.357261 
     10 O           9.977474   -2.019390    0.567433 O.3       1 <1>        -0.357261 
     11 O         -10.590002   -2.483211   -0.408124 O.3       1 <1>        -0.357274 
     12 O           8.863440   -4.467432    1.329072 O.3       1 <1>        -0.357274 
     13 C           0.644654    2.834924    0.778957 C.3       1 <1>         0.155132 
     14 C          -0.851177    1.258622   -0.573718 C.3       1 <1>         0.099705 
     15 C           1.313722    2.154182   -1.593010 C.3       1 <1>         0.099705 
     16 C          -0.812484    2.391759    0.488638 C.3       1 <1>         0.014921 
     17 C           1.328920    3.293707   -0.536648 C.3       1 <1>         0.014921 
     18 C          -0.155193    1.731799   -1.878384 C.3       1 <1>         0.108705 
     19 C           0.635937    3.988239    1.764799 C.2       1 <1>         0.291720 
     20 C          -2.909855    0.252051   -0.006739 C.2       1 <1>         0.286936 
     21 C           3.347341    1.078890   -1.066615 C.2       1 <1>         0.286936 
     22 C          -4.308314   -0.119414   -0.296403 C.2       1 <1>         0.010502 
     23 C           4.124815   -0.070006   -0.564819 C.2       1 <1>         0.010502 
     24 C          -5.067049   -0.863914    0.519933 C.2       1 <1>        -0.048856 
     25 C           5.464616   -0.105408   -0.529382 C.2       1 <1>        -0.048856 
     26 C          -6.497488   -1.277566    0.232058 C.ar      1 <1>        -0.022259 
     27 C           6.301433   -1.271602   -0.037423 C.ar      1 <1>        -0.022259 
     28 C          -7.298333   -1.728010    1.305606 C.ar      1 <1>        -0.022249 
     29 C           7.704956   -1.103627    0.034475 C.ar      1 <1>        -0.022249 
     30 C          -7.091282   -1.237046   -1.129278 C.ar      1 <1>        -0.051998 
     31 C           5.726980   -2.581197    0.368520 C.ar      1 <1>        -0.051998 
     32 C          -8.707489   -2.145841    1.091955 C.ar      1 <1>         0.102746 
     33 C           8.591596   -2.199475    0.502685 C.ar      1 <1>         0.102746 
     34 C          -8.424427   -1.626059   -1.337767 C.ar      1 <1>        -0.028849 
     35 C           6.559872   -3.620748    0.814027 C.ar      1 <1>        -0.028849 
     36 C          -9.262300   -2.093578   -0.204154 C.ar      1 <1>         0.102220 
     37 C           8.030818   -3.434520    0.886585 C.ar      1 <1>         0.102220 
     38 H          -0.310169    0.361981   -0.224204 H         1 <1>         0.062989 
     39 H           1.743844    2.513429   -2.545094 H         1 <1>         0.062989 
     40 H          -1.262413    2.058846    1.436374 H         1 <1>         0.032407 
     41 H          -1.404250    3.241028    0.111471 H         1 <1>         0.032407 
     42 H           2.357556    3.614274   -0.313698 H         1 <1>         0.032407 
     43 H           0.794885    4.166525   -0.946595 H         1 <1>         0.032407 
     44 H          -0.724954    2.589046   -2.278773 H         1 <1>         0.064548 
     45 H           2.224515    1.888436    1.585258 H         1 <1>         0.210848 
     46 H           0.195868    0.871983   -3.674425 H         1 <1>         0.210001 
     47 H          -0.030693    5.749731    2.059683 H         1 <1>         0.220301 
     48 H          -4.685081    0.265519   -1.240506 H         1 <1>         0.067735 
     49 H           3.507810   -0.896084   -0.223653 H         1 <1>         0.067735 
     50 H          -4.631706   -1.198590    1.462086 H         1 <1>         0.062526 
     51 H           5.999596    0.775533   -0.885482 H         1 <1>         0.062526 
     52 H          -6.880259   -1.767373    2.305551 H         1 <1>         0.064993 
     53 H           8.147522   -0.157104   -0.256517 H         1 <1>         0.064993 
     54 H          -6.507658   -0.915120   -1.982957 H         1 <1>         0.062425 
     55 H           4.661039   -2.763950    0.327985 H         1 <1>         0.062425 
     56 H          -8.841091   -1.586300   -2.338918 H         1 <1>         0.064421 
     57 H           6.119213   -4.568507    1.105908 H         1 <1>         0.064421 
     58 H          -9.027617   -2.628514    2.990115 H         1 <1>         0.217422 
     59 H          10.269311   -1.165154    0.272214 H         1 <1>         0.217422 
     60 H         -10.878825   -2.409510   -1.309993 H         1 <1>         0.217422 
     61 H           8.397854   -5.254686    1.584934 H         1 <1>         0.217422 
@<TRIPOS>BOND
     1   14    1 1    
     2    1   20 1    
     3    2   15 1    
     4   21    2 1    
     5   13    3 1    
     6    3   45 1    
     7   18    4 1    
     8    4   46 1    
     9   19    5 1    
    10    5   47 1    
    11   19    6 2    
    12   20    7 2    
    13   21    8 2    
    14   32    9 1    
    15    9   58 1    
    16   33   10 1    
    17   10   59 1    
    18   36   11 1    
    19   11   60 1    
    20   37   12 1    
    21   12   61 1    
    22   13   16 1    
    23   17   13 1    
    24   13   19 1    
    25   14   16 1    
    26   18   14 1    
    27   14   38 1    
    28   15   17 1    
    29   15   18 1    
    30   15   39 1    
    31   16   40 1    
    32   16   41 1    
    33   17   42 1    
    34   17   43 1    
    35   18   44 1    
    36   20   22 1    
    37   23   21 1    
    38   22   24 2    
    39   22   48 1    
    40   25   23 2    
    41   23   49 1    
    42   24   26 1    
    43   24   50 1    
    44   27   25 1    
    45   25   51 1    
    46   26   28 2    
    47   26   30 1    
    48   29   27 2    
    49   27   31 1    
    50   28   32 1    
    51   28   52 1    
    52   33   29 1    
    53   29   53 1    
    54   30   34 2    
    55   30   54 1    
    56   31   35 2    
    57   31   55 1    
    58   32   36 2    
    59   33   37 2    
    60   34   36 1    
    61   34   56 1    
    62   35   37 1    
    63   35   57 1    
@<TRIPOS>SUBSTRUCTURE
     1 ****        2 TEMP              0 ****  ****    0 ROOT 
@<TRIPOS>NORMAL
@<TRIPOS>FF_PBC
FORCE_FIELD_SETUP_FEATURE Force Field Setup information
v1.0  0 0.000000 0.000000 0.000000 0.000000 0.000000 0.000000 NONE 0 0 0 0 1 0 0 0 0 0 0 0 0
