@<TRIPOS>MOLECULE
MOL004481
   26    25     1     1     0
SMALL
GASTEIGER


@<TRIPOS>ATOM
      1 C          -1.441733    3.550012   -1.542808 C.2       1 <1>         0.277374 
      2 N           0.987439    3.836669   -1.614945 N.3       1 <1>        -0.318648 
      3 C          -0.107553    2.840228   -1.558037 C.3       1 <1>         0.101218 
      4 C          -0.004654    1.910235   -0.318470 C.3       1 <1>         0.028386 
      5 S           1.550474    0.965452   -0.362959 S.3       1 <1>        -0.091014 
      6 S           1.352969   -0.324097    1.191639 S.3       1 <1>        -0.091014 
      7 C           0.648023   -1.800720    0.397501 C.3       1 <1>         0.028386 
      8 C           0.566061   -2.958274    1.424303 C.3       1 <1>         0.101218 
      9 N          -0.267001   -2.559347    2.582445 N.3       1 <1>        -0.318648 
     10 C           0.041125   -4.196436    0.734499 C.2       1 <1>         0.277374 
     11 O          -2.205381    3.516528   -2.496354 O.2       1 <1>        -0.263408 
     12 O          -1.731651    4.211204   -0.418694 O.3       1 <1>        -0.330077 
     13 O          -1.007366   -4.725236    1.067189 O.2       1 <1>        -0.263408 
     14 O           0.799508   -4.665583   -0.260925 O.3       1 <1>        -0.330077 
     15 H           1.948832    3.360978   -1.754592 H         1 <1>         0.118945 
     16 H           1.004954    4.439748   -0.717335 H         1 <1>         0.118945 
     17 H          -0.068211    2.218493   -2.469052 H         1 <1>         0.057067 
     18 H          -0.024728    2.496364    0.613040 H         1 <1>         0.040476 
     19 H          -0.846363    1.199938   -0.308057 H         1 <1>         0.040476 
     20 H           1.297984   -2.077197   -0.447743 H         1 <1>         0.040476 
     21 H          -0.352540   -1.556325    0.010807 H         1 <1>         0.040476 
     22 H           1.585793   -3.178555    1.782793 H         1 <1>         0.057067 
     23 H          -0.284649   -3.346737    3.325012 H         1 <1>         0.118945 
     24 H          -1.279919   -2.349520    2.265689 H         1 <1>         0.118945 
     25 H          -2.581582    4.634674   -0.466808 H         1 <1>         0.220259 
     26 H           0.420370   -5.442097   -0.658142 H         1 <1>         0.220259 
@<TRIPOS>BOND
     1    1    3 1    
     2    1   11 2    
     3    1   12 1    
     4    3    2 1    
     5    2   15 1    
     6    2   16 1    
     7    3    4 1    
     8    3   17 1    
     9    4    5 1    
    10    4   18 1    
    11    4   19 1    
    12    5    6 1    
    13    6    7 1    
    14    7    8 1    
    15    7   20 1    
    16    7   21 1    
    17    8    9 1    
    18    8   10 1    
    19    8   22 1    
    20    9   23 1    
    21    9   24 1    
    22   10   13 2    
    23   10   14 1    
    24   12   25 1    
    25   14   26 1    
@<TRIPOS>SUBSTRUCTURE
     1 ****        1 TEMP              0 ****  ****    0 ROOT 
@<TRIPOS>NORMAL
@<TRIPOS>FF_PBC
FORCE_FIELD_SETUP_FEATURE Force Field Setup information
v1.0  0 0.000000 0.000000 0.000000 0.000000 0.000000 0.000000 NONE 0 0 0 0 1 0 0 0 0 0 0 0 0
