@<TRIPOS>MOLECULE
MOL004797
  104   103     1     1     0
SMALL
GASTEIGER


@<TRIPOS>ATOM
      1 O          -3.420148   -2.085432    4.529808 O.3       1 <1>        -0.393086 
      2 O          -0.497510   -2.887026    1.901730 O.3       1 <1>        -0.385850 
      3 O          -1.051963    1.968582    4.887429 O.2       1 <1>        -0.272971 
      4 O           1.347035    1.561346    5.905579 O.3       1 <1>        -0.382571 
      5 N          -1.496238   -0.073042    4.127558 N.am      1 <1>        -0.305348 
      6 C          -2.028136   -2.338214    4.803177 C.3       1 <1>         0.065266 
      7 C          -1.163734   -1.477036    3.844286 C.3       1 <1>         0.075645 
      8 C          -1.413703   -1.869317    2.353254 C.3       1 <1>         0.093762 
      9 C          -0.649192    0.835898    4.685264 C.2       1 <1>         0.242019 
     10 C           0.781910    0.515901    5.085175 C.3       1 <1>         0.130868 
     11 C          -1.222283   -0.682701    1.438500 C.2       1 <1>        -0.057979 
     12 C           1.668122    0.300669    3.820321 C.3       1 <1>        -0.018274 
     13 C          -2.225320    0.149110    1.138588 C.2       1 <1>        -0.085181 
     14 C           2.712876   -0.840918    3.986410 C.3       1 <1>        -0.050258 
     15 C          -2.050766    1.353641    0.245309 C.3       1 <1>        -0.031246 
     16 C           3.257386   -1.323119    2.610481 C.3       1 <1>        -0.052965 
     17 C          -3.417888    2.049422    0.017765 C.3       1 <1>        -0.031325 
     18 C           4.073110   -2.639683    2.744959 C.3       1 <1>        -0.053056 
     19 C          -3.278842    3.333388   -0.766540 C.2       1 <1>        -0.087643 
     20 C           4.494335   -3.191833    1.354106 C.3       1 <1>        -0.053057 
     21 C          -3.766225    4.504323   -0.334995 C.2       1 <1>        -0.087922 
     22 C           5.147410   -4.594122    1.485086 C.3       1 <1>        -0.053057 
     23 C          -3.673145    5.789119   -1.123554 C.3       1 <1>        -0.034761 
     24 C           5.517970   -5.193041    0.101060 C.3       1 <1>        -0.053057 
     25 C          -5.092372    6.173863   -1.619759 C.3       1 <1>        -0.049616 
     26 C           6.134424   -6.607712    0.267829 C.3       1 <1>        -0.053057 
     27 C          -5.099521    7.548602   -2.340754 C.3       1 <1>        -0.052779 
     28 C           6.555811   -7.231246   -1.090343 C.3       1 <1>        -0.053057 
     29 C          -6.526864    7.910454   -2.834358 C.3       1 <1>        -0.053048 
     30 C           7.165565   -8.643587   -0.870147 C.3       1 <1>        -0.053057 
     31 C          -6.566810    9.319683   -3.484241 C.3       1 <1>        -0.053057 
     32 C           7.642428   -9.282616   -2.202615 C.3       1 <1>        -0.053065 
     33 C          -7.999486    9.670906   -3.969520 C.3       1 <1>        -0.053065 
     34 C           8.282919  -10.678070   -1.959638 C.3       1 <1>        -0.053306 
     35 C          -8.059027   11.097279   -4.580484 C.3       1 <1>        -0.053306 
     36 C           8.790529  -11.301093   -3.288910 C.3       1 <1>        -0.055911 
     37 C          -9.496038   11.439577   -5.059093 C.3       1 <1>        -0.055911 
     38 C           9.462455  -12.679325   -3.053610 C.3       1 <1>        -0.065276 
     39 C          -9.563200   12.870135   -5.651515 C.3       1 <1>        -0.065276 
     40 H          -4.006205   -2.582488    5.093624 H         1 <1>         0.209477 
     41 H          -0.579200   -3.712447    2.368115 H         1 <1>         0.210289 
     42 H           2.229835    1.369123    6.206006 H         1 <1>         0.210426 
     43 H          -2.434621    0.218364    3.931772 H         1 <1>         0.149235 
     44 H          -1.789947   -2.051673    5.843178 H         1 <1>         0.057641 
     45 H          -1.795170   -3.408356    4.665538 H         1 <1>         0.057641 
     46 H          -0.116260   -1.724807    4.045940 H         1 <1>         0.054965 
     47 H          -2.447053   -2.234393    2.222835 H         1 <1>         0.065688 
     48 H           0.714624   -0.379025    5.723999 H         1 <1>         0.069005 
     49 H          -0.235687   -0.498624    1.012785 H         1 <1>         0.059494 
     50 H           1.017382    0.053667    2.972210 H         1 <1>         0.029483 
     51 H           2.175769    1.238901    3.548351 H         1 <1>         0.029483 
     52 H          -3.211622   -0.045081    1.565882 H         1 <1>         0.056985 
     53 H           2.243179   -1.706196    4.476589 H         1 <1>         0.026620 
     54 H           3.537031   -0.500967    4.634462 H         1 <1>         0.026620 
     55 H          -1.609818    1.049731   -0.718775 H         1 <1>         0.031028 
     56 H          -1.357837    2.053100    0.739092 H         1 <1>         0.031028 
     57 H           2.410928   -1.529635    1.935207 H         1 <1>         0.026530 
     58 H           3.875510   -0.533464    2.153622 H         1 <1>         0.026530 
     59 H          -3.884686    2.242500    0.998193 H         1 <1>         0.031027 
     60 H          -4.079075    1.370902   -0.546674 H         1 <1>         0.031027 
     61 H           4.967353   -2.464577    3.366561 H         1 <1>         0.026528 
     62 H           3.447128   -3.397193    3.244855 H         1 <1>         0.026528 
     63 H          -2.767570    3.277860   -1.728629 H         1 <1>         0.056905 
     64 H           3.608056   -3.283440    0.703636 H         1 <1>         0.026528 
     65 H           5.200711   -2.489991    0.880803 H         1 <1>         0.026528 
     66 H          -4.274855    4.562220    0.629092 H         1 <1>         0.056896 
     67 H           6.050732   -4.518291    2.110966 H         1 <1>         0.026528 
     68 H           4.440723   -5.275402    1.986391 H         1 <1>         0.026528 
     69 H          -3.270565    6.575532   -0.464727 H         1 <1>         0.030732 
     70 H          -2.997420    5.688698   -1.988398 H         1 <1>         0.030732 
     71 H           4.617752   -5.260926   -0.529609 H         1 <1>         0.026528 
     72 H           6.236699   -4.527073   -0.400628 H         1 <1>         0.026528 
     73 H          -5.455172    5.395059   -2.310384 H         1 <1>         0.026822 
     74 H          -5.780485    6.216540   -0.759076 H         1 <1>         0.026822 
     75 H           7.017221   -6.536577    0.923756 H         1 <1>         0.026528 
     76 H           5.396616   -7.266346    0.753459 H         1 <1>         0.026528 
     77 H          -4.745570    8.322910   -1.641481 H         1 <1>         0.026538 
     78 H          -4.410356    7.519671   -3.200314 H         1 <1>         0.026538 
     79 H           5.676727   -7.302636   -1.754083 H         1 <1>         0.026528 
     80 H           7.302876   -6.578570   -1.572235 H         1 <1>         0.026528 
     81 H          -6.859495    7.158542   -3.568280 H         1 <1>         0.026529 
     82 H          -7.221730    7.887725   -1.979089 H         1 <1>         0.026529 
     83 H           8.025287   -8.563782   -0.184579 H         1 <1>         0.026528 
     84 H           6.409184   -9.297646   -0.403713 H         1 <1>         0.026528 
     85 H          -6.240990   10.066959   -2.742006 H         1 <1>         0.026528 
     86 H          -5.871663    9.353710   -4.339345 H         1 <1>         0.026528 
     87 H           6.784157   -9.385355   -2.887293 H         1 <1>         0.026528 
     88 H           8.386990   -8.621931   -2.677073 H         1 <1>         0.026528 
     89 H          -8.319622    8.935835   -4.726543 H         1 <1>         0.026528 
     90 H          -8.697865    9.613349   -3.118239 H         1 <1>         0.026528 
     91 H           9.132731  -10.577929   -1.263996 H         1 <1>         0.026520 
     92 H           7.539364  -11.350189   -1.500464 H         1 <1>         0.026520 
     93 H          -7.741379   11.832442   -3.822041 H         1 <1>         0.026520 
     94 H          -7.362219   11.159449   -5.433058 H         1 <1>         0.026520 
     95 H           7.942639  -11.426462   -3.982155 H         1 <1>         0.026265 
     96 H           9.522947  -10.624261   -3.758088 H         1 <1>         0.026265 
     97 H          -9.810985   10.712537   -5.826967 H         1 <1>         0.026265 
     98 H         -10.194300   11.368864   -4.207812 H         1 <1>         0.026265 
     99 H           9.815867  -13.096679   -4.010046 H         1 <1>         0.022978 
    100 H          10.325369  -12.577555   -2.378171 H         1 <1>         0.022978 
    101 H           8.746669  -13.386844   -2.607288 H         1 <1>         0.022978 
    102 H         -10.588009   13.092588   -5.986021 H         1 <1>         0.022978 
    103 H          -9.272973   13.612724   -4.892644 H         1 <1>         0.022978 
    104 H          -8.884874   12.959960   -6.513886 H         1 <1>         0.022978 
@<TRIPOS>BOND
     1    6    1 1    
     2    1   40 1    
     3    8    2 1    
     4    2   41 1    
     5    9    3 2    
     6   10    4 1    
     7    4   42 1    
     8    5    7 1    
     9    9    5 1    
    10    5   43 1    
    11    7    6 1    
    12    6   44 1    
    13    6   45 1    
    14    7    8 1    
    15    7   46 1    
    16    8   11 1    
    17    8   47 1    
    18    9   10 1    
    19   10   12 1    
    20   10   48 1    
    21   11   13 2    
    22   11   49 1    
    23   12   14 1    
    24   12   50 1    
    25   12   51 1    
    26   13   15 1    
    27   13   52 1    
    28   14   16 1    
    29   14   53 1    
    30   14   54 1    
    31   15   17 1    
    32   15   55 1    
    33   15   56 1    
    34   16   18 1    
    35   16   57 1    
    36   16   58 1    
    37   17   19 1    
    38   17   59 1    
    39   17   60 1    
    40   18   20 1    
    41   18   61 1    
    42   18   62 1    
    43   19   21 2    
    44   19   63 1    
    45   20   22 1    
    46   20   64 1    
    47   20   65 1    
    48   21   23 1    
    49   21   66 1    
    50   22   24 1    
    51   22   67 1    
    52   22   68 1    
    53   23   25 1    
    54   23   69 1    
    55   23   70 1    
    56   24   26 1    
    57   24   71 1    
    58   24   72 1    
    59   25   27 1    
    60   25   73 1    
    61   25   74 1    
    62   26   28 1    
    63   26   75 1    
    64   26   76 1    
    65   27   29 1    
    66   27   77 1    
    67   27   78 1    
    68   28   30 1    
    69   28   79 1    
    70   28   80 1    
    71   29   31 1    
    72   29   81 1    
    73   29   82 1    
    74   30   32 1    
    75   30   83 1    
    76   30   84 1    
    77   31   33 1    
    78   31   85 1    
    79   31   86 1    
    80   32   34 1    
    81   32   87 1    
    82   32   88 1    
    83   33   35 1    
    84   33   89 1    
    85   33   90 1    
    86   34   36 1    
    87   34   91 1    
    88   34   92 1    
    89   35   37 1    
    90   35   93 1    
    91   35   94 1    
    92   36   38 1    
    93   36   95 1    
    94   36   96 1    
    95   37   39 1    
    96   37   97 1    
    97   37   98 1    
    98   38   99 1    
    99   38  100 1    
   100   38  101 1    
   101   39  102 1    
   102   39  103 1    
   103   39  104 1    
@<TRIPOS>SUBSTRUCTURE
     1 ****        1 TEMP              0 ****  ****    0 ROOT 
@<TRIPOS>NORMAL
@<TRIPOS>FF_PBC
FORCE_FIELD_SETUP_FEATURE Force Field Setup information
v1.0  0 0.000000 0.000000 0.000000 0.000000 0.000000 0.000000 NONE 0 0 0 0 1 0 0 0 0 0 0 0 0
