@<TRIPOS>MOLECULE
MOL002209
   31    32     1     1     0
SMALL
GASTEIGER


@<TRIPOS>ATOM
      1 C          -1.336992    1.528306    1.993166 C.3       1 <1>        -0.030562 
      2 C          -2.040035    0.581210    2.947332 C.2       1 <1>        -0.082969 
      3 C          -1.746435   -0.725477    2.990452 C.2       1 <1>        -0.052662 
      4 C          -0.696154   -1.216820    2.091633 C.2       1 <1>         0.050553 
      5 C           0.111136   -0.406997    1.424242 C.2       1 <1>         0.002133 
      6 C           0.107582    1.084283    1.623117 C.3       1 <1>        -0.022243 
      7 C          -0.196154   -2.528714    1.700710 C.2       1 <1>         0.296601 
      8 O           0.871026   -2.518159    0.901426 O.3       1 <1>        -0.274394 
      9 C           1.051315   -1.140910    0.495330 C.3       1 <1>         0.199915 
     10 O          -0.699512   -3.566373    2.096604 O.2       1 <1>        -0.259128 
     11 O           2.414273   -0.740407    0.669592 O.3       1 <1>        -0.360753 
     12 C           0.649669   -1.109278   -1.005201 C.3       1 <1>         0.006019 
     13 C           0.635174    0.298372   -1.657896 C.3       1 <1>        -0.048094 
     14 C           0.494115    0.205877   -3.202193 C.3       1 <1>        -0.055733 
     15 C           0.439697    1.615205   -3.847769 C.3       1 <1>        -0.065274 
     16 H          -1.946778    1.570379    1.076403 H         1 <1>         0.031048 
     17 H          -1.300878    2.541585    2.426026 H         1 <1>         0.031048 
     18 H          -2.819259    0.973340    3.603136 H         1 <1>         0.057233 
     19 H          -2.260413   -1.417555    3.657908 H         1 <1>         0.062217 
     20 H           0.772816    1.274537    2.480304 H         1 <1>         0.031493 
     21 H           0.497874    1.659130    0.772775 H         1 <1>         0.031493 
     22 H           2.701702   -0.887061    1.563881 H         1 <1>         0.213096 
     23 H          -0.345170   -1.568600   -1.125261 H         1 <1>         0.032053 
     24 H           1.381596   -1.741576   -1.532744 H         1 <1>         0.032053 
     25 H           1.567249    0.830926   -1.407894 H         1 <1>         0.026696 
     26 H          -0.225032    0.869560   -1.275480 H         1 <1>         0.026696 
     27 H          -0.427094   -0.344440   -3.457454 H         1 <1>         0.026267 
     28 H           1.352432   -0.345646   -3.621132 H         1 <1>         0.026267 
     29 H           0.345279    1.527823   -4.941797 H         1 <1>         0.022978 
     30 H           1.358280    2.178026   -3.619313 H         1 <1>         0.022978 
     31 H          -0.425166    2.180273   -3.466497 H         1 <1>         0.022978 
@<TRIPOS>BOND
     1    1    2 1    
     2    1    6 1    
     3    1   16 1    
     4    1   17 1    
     5    2    3 2    
     6    2   18 1    
     7    3    4 1    
     8    3   19 1    
     9    4    5 2    
    10    4    7 1    
    11    5    6 1    
    12    5    9 1    
    13    6   20 1    
    14    6   21 1    
    15    7    8 1    
    16    7   10 2    
    17    8    9 1    
    18    9   11 1    
    19    9   12 1    
    20   11   22 1    
    21   12   13 1    
    22   12   23 1    
    23   12   24 1    
    24   13   14 1    
    25   13   25 1    
    26   13   26 1    
    27   14   15 1    
    28   14   27 1    
    29   14   28 1    
    30   15   29 1    
    31   15   30 1    
    32   15   31 1    
@<TRIPOS>SUBSTRUCTURE
     1 ****        1 TEMP              0 ****  ****    0 ROOT 
@<TRIPOS>NORMAL
@<TRIPOS>FF_PBC
FORCE_FIELD_SETUP_FEATURE Force Field Setup information
v1.0  0 0.000000 0.000000 0.000000 0.000000 0.000000 0.000000 NONE 0 0 0 0 1 0 0 0 0 0 0 0 0
