@<TRIPOS>MOLECULE
MOL003997
   11    11     1     1     0
SMALL
GASTEIGER


@<TRIPOS>ATOM
      1 C          -0.320909   -0.212304   -0.170897 C.ar      1 <1>         0.118198 
      2 C          -0.055044    0.914619    0.732553 C.ar      1 <1>         0.053110 
      3 C           0.904249   -0.681327   -0.543787 C.ar      1 <1>         0.331207 
      4 C          -1.653255   -0.764036   -0.616001 C.2       1 <1>         0.158806 
      5 C           1.309916    1.000201    0.804315 C.ar      1 <1>         0.321765 
      6 O           1.957041    0.033566    0.031383 O.2       1 <1>        -0.220246 
      7 O          -1.645575   -1.716132   -1.376905 O.2       1 <1>        -0.295398 
      8 H          -0.784228    1.542663    1.234010 H         1 <1>         0.071418 
      9 H           1.045142   -1.522815   -1.217606 H         1 <1>         0.176727 
     10 H          -2.596272   -0.335210   -0.276203 H         1 <1>         0.108437 
     11 H           1.838636    1.740975    1.399038 H         1 <1>         0.175976 
@<TRIPOS>BOND
     1    1    2 1    
     2    1    3 2    
     3    1    4 1    
     4    2    5 2    
     5    2    8 1    
     6    3    6 1    
     7    3    9 1    
     8    4    7 2    
     9    4   10 1    
    10    5    6 1    
    11    5   11 1    
@<TRIPOS>SUBSTRUCTURE
     1 ****        1 TEMP              0 ****  ****    0 ROOT 
@<TRIPOS>NORMAL
@<TRIPOS>FF_PBC
FORCE_FIELD_SETUP_FEATURE Force Field Setup information
v1.0  0 0.000000 0.000000 0.000000 0.000000 0.000000 0.000000 NONE 0 0 0 0 1 0 0 0 0 0 0 0 0
