@<TRIPOS>MOLECULE
MOL000270
   26    27     1     1     0
SMALL
GASTEIGER


@<TRIPOS>ATOM
      1 C           0.008349    1.011599    1.192675 C.3       1 <1>        -0.028566 
      2 C           0.369768   -0.493517    1.196616 C.3       1 <1>        -0.028339 
      3 C          -1.110015   -0.053171    1.053089 C.3       1 <1>        -0.028111 
      4 C           0.376989    1.850458   -0.053641 C.3       1 <1>        -0.030902 
      5 C           1.071332   -1.091751   -0.046370 C.3       1 <1>        -0.028391 
      6 C          -1.993133   -0.261877    2.312578 C.3       1 <1>        -0.059270 
      7 C          -1.843066   -0.230000   -0.304375 C.3       1 <1>        -0.059270 
      8 C           1.045866    1.134113   -1.196877 C.2       1 <1>        -0.084728 
      9 C           1.356604   -0.168658   -1.205863 C.2       1 <1>        -0.076234 
     10 C           2.025167   -0.814841   -2.400139 C.3       1 <1>        -0.043778 
     11 H           0.013711    1.520626    2.170241 H         1 <1>         0.031192 
     12 H           0.601588   -0.940691    2.176978 H         1 <1>         0.031200 
     13 H           1.081139    2.629663    0.278078 H         1 <1>         0.031033 
     14 H          -0.535469    2.351665   -0.411933 H         1 <1>         0.031033 
     15 H           2.046195   -1.472437    0.295846 H         1 <1>         0.031283 
     16 H           0.475364   -1.952179   -0.387255 H         1 <1>         0.031283 
     17 H          -2.407011   -1.281100    2.294576 H         1 <1>         0.023516 
     18 H          -2.823732    0.459249    2.291220 H         1 <1>         0.023516 
     19 H          -1.440998   -0.127833    3.255331 H         1 <1>         0.023516 
     20 H          -2.261931   -1.246386   -0.342697 H         1 <1>         0.023516 
     21 H          -2.672560    0.491182   -0.347193 H         1 <1>         0.023516 
     22 H          -1.225999   -0.086755   -1.197795 H         1 <1>         0.023516 
     23 H           1.280704    1.748187   -2.067553 H         1 <1>         0.057163 
     24 H           2.989049   -1.247819   -2.093266 H         1 <1>         0.027436 
     25 H           1.383446   -1.620657   -2.786885 H         1 <1>         0.027436 
     26 H           2.215290   -0.107179   -3.221172 H         1 <1>         0.027436 
@<TRIPOS>BOND
     1    1    2 1    
     2    1    3 1    
     3    1    4 1    
     4    1   11 1    
     5    2    3 1    
     6    2    5 1    
     7    2   12 1    
     8    3    6 1    
     9    3    7 1    
    10    4    8 1    
    11    4   13 1    
    12    4   14 1    
    13    5    9 1    
    14    5   15 1    
    15    5   16 1    
    16    6   17 1    
    17    6   18 1    
    18    6   19 1    
    19    7   20 1    
    20    7   21 1    
    21    7   22 1    
    22    8    9 2    
    23    8   23 1    
    24    9   10 1    
    25   10   24 1    
    26   10   25 1    
    27   10   26 1    
@<TRIPOS>SUBSTRUCTURE
     1 ****        1 TEMP              0 ****  ****    0 ROOT 
@<TRIPOS>NORMAL
@<TRIPOS>FF_PBC
FORCE_FIELD_SETUP_FEATURE Force Field Setup information
v1.0  0 0.000000 0.000000 0.000000 0.000000 0.000000 0.000000 NONE 0 0 0 0 1 0 0 0 0 0 0 0 0
