@<TRIPOS>MOLECULE
MOL004903
   52    55     1     1     0
SMALL
GASTEIGER


@<TRIPOS>ATOM
      1 C          -3.264545    2.370113   -3.287299 C.ar      1 <1>         0.047604 
      2 C          -3.211025    1.059395   -3.582273 C.ar      1 <1>         0.089874 
      3 C          -1.997332    3.188964   -3.275191 C.2       1 <1>         0.168428 
      4 C          -4.572646    3.005203   -2.987321 C.ar      1 <1>        -0.046345 
      5 O          -2.006759    0.457326   -3.954976 O.3       1 <1>        -0.335670 
      6 C          -4.450245    0.247378   -3.537649 C.ar      1 <1>        -0.001193 
      7 C          -0.700319    2.558381   -3.693993 C.3       1 <1>         0.041476 
      8 O          -2.019967    4.364277   -2.938735 O.2       1 <1>        -0.291871 
      9 C          -5.697190    2.270295   -2.988022 C.ar      1 <1>        -0.031116 
     10 C          -0.748346    1.016646   -3.545180 C.3       1 <1>         0.097160 
     11 C          -5.635639    0.813111   -3.268454 C.ar      1 <1>         0.075065 
     12 C          -0.303528    0.493523   -2.166017 C.ar      1 <1>        -0.017820 
     13 O          -6.789389    0.023003   -3.254062 O.3       1 <1>        -0.359749 
     14 C           0.926957   -0.333466   -2.088587 C.ar      1 <1>        -0.053652 
     15 C          -1.014043    0.743672   -0.979940 C.ar      1 <1>        -0.053652 
     16 C           1.324190   -0.920623   -0.889973 C.ar      1 <1>        -0.031231 
     17 C          -0.575310    0.137863    0.307993 C.ar      1 <1>        -0.031231 
     18 C           0.548056   -0.713675    0.350673 C.ar      1 <1>         0.079482 
     19 O           0.939358   -1.404676    1.506419 O.3       1 <1>        -0.312551 
     20 C           0.946152   -0.859079    2.837026 C.3       1 <1>         0.193642 
     21 O           1.933325    0.169288    3.054410 O.3       1 <1>        -0.340168 
     22 C           1.099129   -2.017657    3.858043 C.3       1 <1>         0.134509 
     23 C           3.303422   -0.294305    3.069456 C.3       1 <1>         0.113017 
     24 C           2.528528   -2.618127    3.801614 C.3       1 <1>         0.114074 
     25 O           0.770972   -1.513457    5.171453 O.3       1 <1>        -0.384091 
     26 C           3.555513   -1.479988    4.044345 C.3       1 <1>         0.111896 
     27 C           3.861998   -0.542792    1.644703 C.3       1 <1>         0.073015 
     28 O           2.735895   -3.308031    2.552592 O.3       1 <1>        -0.386401 
     29 O           3.476786   -0.999901    5.403546 O.3       1 <1>        -0.386488 
     30 O           5.292722   -0.723984    1.702299 O.3       1 <1>        -0.392366 
     31 H          -4.623224    4.069659   -2.775673 H         1 <1>         0.062610 
     32 H          -4.396815   -0.818640   -3.722774 H         1 <1>         0.066929 
     33 H          -0.547671    2.832323   -4.750196 H         1 <1>         0.037398 
     34 H           0.137295    2.960005   -3.104646 H         1 <1>         0.037398 
     35 H          -6.650225    2.745498   -2.781670 H         1 <1>         0.064341 
     36 H          -0.043180    0.600975   -4.283253 H         1 <1>         0.065571 
     37 H          -7.581709    0.497087   -3.024555 H         1 <1>         0.217315 
     38 H           1.538261   -0.499159   -2.968699 H         1 <1>         0.062190 
     39 H          -1.903826    1.364262   -0.998761 H         1 <1>         0.062190 
     40 H           2.212361   -1.538304   -0.871305 H         1 <1>         0.064339 
     41 H          -1.154771    0.344008    1.199776 H         1 <1>         0.064339 
     42 H          -0.033628   -0.410863    3.052721 H         1 <1>         0.094159 
     43 H           0.374778   -2.805623    3.585444 H         1 <1>         0.067108 
     44 H           3.885702    0.554985    3.462526 H         1 <1>         0.064668 
     45 H           2.616441   -3.370491    4.603512 H         1 <1>         0.064758 
     46 H           0.816868   -2.168411    5.859989 H         1 <1>         0.210111 
     47 H           4.578708   -1.861158    3.883653 H         1 <1>         0.064673 
     48 H           3.393477   -1.426075    1.196374 H         1 <1>         0.058370 
     49 H           3.618531    0.335330    1.023552 H         1 <1>         0.058370 
     50 H           3.592713   -3.718661    2.477358 H         1 <1>         0.210005 
     51 H           3.662455   -1.663173    6.061416 H         1 <1>         0.210004 
     52 H           5.696268   -0.857050    0.848471 H         1 <1>         0.209508 
@<TRIPOS>BOND
     1    1    2 2    
     2    1    3 1    
     3    1    4 1    
     4    2    5 1    
     5    2    6 1    
     6    3    7 1    
     7    3    8 2    
     8    4    9 2    
     9    4   31 1    
    10    5   10 1    
    11    6   11 2    
    12    6   32 1    
    13    7   10 1    
    14    7   33 1    
    15    7   34 1    
    16    9   11 1    
    17    9   35 1    
    18   10   12 1    
    19   10   36 1    
    20   11   13 1    
    21   12   14 1    
    22   12   15 2    
    23   13   37 1    
    24   14   16 2    
    25   14   38 1    
    26   15   17 1    
    27   15   39 1    
    28   16   18 1    
    29   16   40 1    
    30   17   18 2    
    31   17   41 1    
    32   18   19 1    
    33   19   20 1    
    34   20   21 1    
    35   20   22 1    
    36   20   42 1    
    37   21   23 1    
    38   22   24 1    
    39   22   25 1    
    40   22   43 1    
    41   23   26 1    
    42   23   27 1    
    43   23   44 1    
    44   24   26 1    
    45   24   28 1    
    46   24   45 1    
    47   25   46 1    
    48   26   29 1    
    49   26   47 1    
    50   27   30 1    
    51   27   48 1    
    52   27   49 1    
    53   28   50 1    
    54   29   51 1    
    55   30   52 1    
@<TRIPOS>SUBSTRUCTURE
     1 ****        1 TEMP              0 ****  ****    0 ROOT 
@<TRIPOS>NORMAL
@<TRIPOS>FF_PBC
FORCE_FIELD_SETUP_FEATURE Force Field Setup information
v1.0  0 0.000000 0.000000 0.000000 0.000000 0.000000 0.000000 NONE 0 0 0 0 1 0 0 0 0 0 0 0 0
