@<TRIPOS>MOLECULE
MOL004965
   59    61     1     1     0
SMALL
GASTEIGER


@<TRIPOS>ATOM
      1 C          -5.295880   -1.047423   -2.054169 C.ar      1 <1>         0.080967 
      2 C          -5.250889   -2.071036   -0.983118 C.ar      1 <1>        -0.001036 
      3 C          -4.201434   -2.151505   -0.158396 C.ar      1 <1>         0.088005 
      4 C          -3.088601   -1.182231   -0.319615 C.ar      1 <1>         0.078072 
      5 C          -3.116251   -0.251004   -1.293672 C.ar      1 <1>         0.095072 
      6 C          -4.271078   -0.183354   -2.228591 C.ar      1 <1>         0.016826 
      7 C          -1.903766   -1.231836    0.617712 C.2       1 <1>         0.177737 
      8 O          -2.061403    0.662458   -1.423809 O.3       1 <1>        -0.342515 
      9 C          -0.790956   -0.238109    0.450061 C.3       1 <1>         0.073478 
     10 C          -0.759619    0.192597   -1.036907 C.3       1 <1>         0.068192 
     11 O          -4.181501   -3.144520    0.828742 O.3       1 <1>        -0.358966 
     12 O          -6.416171   -0.996988   -2.878459 O.3       1 <1>        -0.359385 
     13 C          -4.320788    0.851478   -3.366848 C.3       1 <1>        -0.004331 
     14 C          -2.980584    1.215311   -3.967149 C.2       1 <1>        -0.080815 
     15 C          -2.657636    2.401428   -4.511689 C.2       1 <1>        -0.079306 
     16 C          -1.258255    2.668107   -5.029034 C.3       1 <1>        -0.044040 
     17 C          -3.628832    3.552006   -4.662190 C.3       1 <1>        -0.044040 
     18 O          -1.867257   -2.076933    1.498862 O.2       1 <1>        -0.291153 
     19 C           0.554199   -0.859413    0.851895 C.ar      1 <1>        -0.004463 
     20 C           1.465336   -0.133972    1.768402 C.ar      1 <1>         0.082401 
     21 C           2.709990   -0.682821    2.141261 C.ar      1 <1>         0.015997 
     22 O           1.068488    1.107626    2.263498 O.3       1 <1>        -0.359175 
     23 C           3.123983   -1.990802    1.563323 C.ar      1 <1>         0.078500 
     24 C           2.240484   -2.693575    0.726599 C.ar      1 <1>        -0.031223 
     25 C           0.925972   -2.113524    0.361137 C.ar      1 <1>        -0.052923 
     26 C           3.575454    0.119864    3.130479 C.3       1 <1>        -0.004353 
     27 O           4.388976   -2.514144    1.842113 O.3       1 <1>        -0.359468 
     28 C           4.653869   -0.588163    3.916376 C.2       1 <1>        -0.080815 
     29 C           5.670233    0.049823    4.521967 C.2       1 <1>        -0.079306 
     30 C           6.784204   -0.704327    5.213462 C.3       1 <1>        -0.044040 
     31 C           5.798125    1.557623    4.566830 C.3       1 <1>        -0.044040 
     32 H          -6.076175   -2.766511   -0.871567 H         1 <1>         0.066932 
     33 H          -1.038464    0.635640    1.075796 H         1 <1>         0.045323 
     34 H          -0.039390    1.014741   -1.175430 H         1 <1>         0.057526 
     35 H          -0.464156   -0.648917   -1.687644 H         1 <1>         0.057526 
     36 H          -4.845135    1.713866   -2.929730 H         1 <1>         0.035721 
     37 H          -4.918442    0.447080   -4.198367 H         1 <1>         0.035721 
     38 H          -2.224474    0.431752   -3.959533 H         1 <1>         0.057473 
     39 H          -1.275138    2.637125   -6.128436 H         1 <1>         0.027427 
     40 H          -0.922120    3.666871   -4.707050 H         1 <1>         0.027427 
     41 H          -0.519324    1.938207   -4.661510 H         1 <1>         0.027427 
     42 H          -3.466978    4.051073   -5.633383 H         1 <1>         0.027427 
     43 H          -4.682197    3.240816   -4.634037 H         1 <1>         0.027427 
     44 H          -3.451035    4.281406   -3.855664 H         1 <1>         0.027427 
     45 H           2.513444   -3.667333    0.329306 H         1 <1>         0.064339 
     46 H           0.261922   -2.665798   -0.295032 H         1 <1>         0.062208 
     47 H           2.910225    0.538558    3.903330 H         1 <1>         0.035721 
     48 H           4.007611    0.936750    2.528759 H         1 <1>         0.035721 
     49 H           4.598158   -1.668802    4.011486 H         1 <1>         0.057473 
     50 H           6.735408   -1.791096    5.049529 H         1 <1>         0.027427 
     51 H           6.757132   -0.511783    6.296415 H         1 <1>         0.027427 
     52 H           7.747019   -0.347256    4.815743 H         1 <1>         0.027427 
     53 H           4.847096    2.091897    4.427652 H         1 <1>         0.027427 
     54 H           6.503816    1.883665    3.788892 H         1 <1>         0.027427 
     55 H           6.194675    1.865627    5.546354 H         1 <1>         0.027427 
     56 H          -3.401966   -3.127448    1.374287 H         1 <1>         0.217342 
     57 H          -7.012724   -0.315372   -2.586899 H         1 <1>         0.217328 
     58 H           1.665542    1.803083    2.011306 H         1 <1>         0.217338 
     59 H           4.671481   -3.211865    1.262087 H         1 <1>         0.217326 
@<TRIPOS>BOND
     1    1    2 1    
     2    1    6 2    
     3    1   12 1    
     4    2    3 2    
     5    2   32 1    
     6    3    4 1    
     7    3   11 1    
     8    4    5 2    
     9    4    7 1    
    10    5    6 1    
    11    5    8 1    
    12    6   13 1    
    13    7    9 1    
    14    7   18 2    
    15    8   10 1    
    16    9   10 1    
    17    9   19 1    
    18    9   33 1    
    19   10   34 1    
    20   10   35 1    
    21   11   56 1    
    22   12   57 1    
    23   13   14 1    
    24   13   36 1    
    25   13   37 1    
    26   14   15 2    
    27   14   38 1    
    28   15   16 1    
    29   15   17 1    
    30   16   39 1    
    31   16   40 1    
    32   16   41 1    
    33   17   42 1    
    34   17   43 1    
    35   17   44 1    
    36   19   20 1    
    37   19   25 2    
    38   20   21 2    
    39   20   22 1    
    40   21   23 1    
    41   21   26 1    
    42   22   58 1    
    43   23   24 2    
    44   23   27 1    
    45   24   25 1    
    46   24   45 1    
    47   25   46 1    
    48   26   28 1    
    49   26   47 1    
    50   26   48 1    
    51   27   59 1    
    52   28   29 2    
    53   28   49 1    
    54   29   30 1    
    55   29   31 1    
    56   30   50 1    
    57   30   51 1    
    58   30   52 1    
    59   31   53 1    
    60   31   54 1    
    61   31   55 1    
@<TRIPOS>SUBSTRUCTURE
     1 ****        1 TEMP              0 ****  ****    0 ROOT 
@<TRIPOS>NORMAL
@<TRIPOS>FF_PBC
FORCE_FIELD_SETUP_FEATURE Force Field Setup information
v1.0  0 0.000000 0.000000 0.000000 0.000000 0.000000 0.000000 NONE 0 0 0 0 1 0 0 0 0 0 0 0 0
