@<TRIPOS>MOLECULE
MOL004909
   78    83     1     1     0
SMALL
GASTEIGER


@<TRIPOS>ATOM
      1 C           0.489452    0.958390    1.319819 C.2       1 <1>        -0.056101 
      2 C           1.237818   -0.201609    0.644039 C.3       1 <1>        -0.004330 
      3 C           1.077677    1.509682    2.604540 C.3       1 <1>        -0.010239 
      4 C           0.858041    0.410350    3.682943 C.3       1 <1>         0.001346 
      5 C           1.597853   -0.872503    3.198870 C.3       1 <1>        -0.043901 
      6 C           1.224711   -1.329462    1.743952 C.3       1 <1>        -0.042787 
      7 C           0.617072    2.896983    3.155980 C.3       1 <1>        -0.031350 
      8 C           1.260114    3.194239    4.545251 C.3       1 <1>         0.056271 
      9 C           0.772671    2.167607    5.590287 C.3       1 <1>        -0.011012 
     10 C           1.477999    0.909913    5.035377 C.3       1 <1>         0.074936 
     11 C          -0.654171    0.046005    3.863144 C.3       1 <1>        -0.056635 
     12 C           2.698238    2.747214    4.562797 C.2       1 <1>         0.268488 
     13 C           1.010945    4.659276    4.990752 C.3       1 <1>        -0.050390 
     14 O           2.807935    1.439990    4.842964 O.3       1 <1>        -0.310871 
     15 O           3.652519    3.485785    4.385889 O.2       1 <1>        -0.264354 
     16 C          -0.665358    1.450424    0.859269 C.2       1 <1>        -0.018838 
     17 C          -1.403487    0.857990   -0.251260 C.2       1 <1>         0.160199 
     18 C           2.750664    0.148036    0.408065 C.3       1 <1>        -0.055302 
     19 C          -0.983681   -0.482368   -0.793476 C.3       1 <1>         0.033332 
     20 C           0.587967   -0.574999   -0.778372 C.3       1 <1>        -0.012656 
     21 C          -1.764660   -0.883636   -2.123839 C.3       1 <1>        -0.018250 
     22 C           1.060315    0.474711   -1.836933 C.3       1 <1>        -0.058099 
     23 C          -1.026392   -2.053152   -2.904286 C.3       1 <1>        -0.027446 
     24 C          -0.134943   -2.854040   -1.912092 C.3       1 <1>        -0.048587 
     25 C           1.008042   -2.011067   -1.273179 C.3       1 <1>        -0.045876 
     26 C          -3.163677   -1.409278   -1.614045 C.3       1 <1>        -0.058618 
     27 C          -2.144593    0.314794   -3.078296 C.3       1 <1>        -0.044330 
     28 C          -2.302139   -0.117716   -4.555891 C.3       1 <1>        -0.025820 
     29 C          -0.940671   -0.590869   -5.101207 C.3       1 <1>         0.060638 
     30 C          -0.478866   -1.917771   -4.403608 C.3       1 <1>        -0.005578 
     31 O          -1.098167   -0.705190   -6.529619 O.3       1 <1>        -0.391248 
     32 C           1.079068   -2.019548   -4.564028 C.3       1 <1>        -0.057190 
     33 C          -1.021579   -3.125887   -5.253060 C.3       1 <1>        -0.057190 
     34 O          -2.364518    1.478447   -0.672620 O.2       1 <1>        -0.292347 
     35 H           2.147625    1.656082    2.414104 H         1 <1>         0.035227 
     36 H           1.377989   -1.700959    3.893779 H         1 <1>         0.027177 
     37 H           2.681396   -0.695716    3.286244 H         1 <1>         0.027177 
     38 H           1.980620   -2.103952    1.537430 H         1 <1>         0.027393 
     39 H           0.248016   -1.833247    1.741586 H         1 <1>         0.027393 
     40 H           0.906105    3.671579    2.426534 H         1 <1>         0.028123 
     41 H          -0.467061    2.969940    3.311458 H         1 <1>         0.028123 
     42 H          -0.319124    2.109191    5.684855 H         1 <1>         0.030059 
     43 H           1.173933    2.409300    6.590689 H         1 <1>         0.030059 
     44 H           1.493984    0.092342    5.774791 H         1 <1>         0.060788 
     45 H          -0.769024   -0.647049    4.711245 H         1 <1>         0.023605 
     46 H          -1.300539    0.910828    4.047386 H         1 <1>         0.023605 
     47 H          -1.076144   -0.445567    2.977211 H         1 <1>         0.023605 
     48 H           1.375915    5.356222    4.221184 H         1 <1>         0.023987 
     49 H           1.535705    4.875072    5.933833 H         1 <1>         0.023987 
     50 H          -0.067008    4.828439    5.140078 H         1 <1>         0.023987 
     51 H          -1.169052    2.310707    1.293826 H         1 <1>         0.065218 
     52 H           3.209347   -0.586696   -0.269085 H         1 <1>         0.023829 
     53 H           2.857463    1.155712   -0.019605 H         1 <1>         0.023829 
     54 H           3.381412    0.131680    1.302575 H         1 <1>         0.023829 
     55 H          -1.279194   -1.168066    0.013157 H         1 <1>         0.039170 
     56 H           0.555281    0.288316   -2.775791 H         1 <1>         0.023553 
     57 H           2.127642    0.425829   -2.092715 H         1 <1>         0.023553 
     58 H           0.827531    1.503032   -1.523499 H         1 <1>         0.023553 
     59 H          -1.846203   -2.770658   -3.056605 H         1 <1>         0.031221 
     60 H           0.271477   -3.761990   -2.383894 H         1 <1>         0.026846 
     61 H          -0.772869   -3.220335   -1.087895 H         1 <1>         0.026846 
     62 H           1.359252   -2.661392   -0.466535 H         1 <1>         0.027107 
     63 H           1.872389   -1.954015   -1.946142 H         1 <1>         0.027107 
     64 H          -3.065882   -2.317264   -1.000630 H         1 <1>         0.023535 
     65 H          -3.680053   -0.660028   -0.995533 H         1 <1>         0.023535 
     66 H          -3.835817   -1.655335   -2.450396 H         1 <1>         0.023535 
     67 H          -3.119205    0.762272   -2.818119 H         1 <1>         0.027160 
     68 H          -1.438036    1.154350   -3.028446 H         1 <1>         0.027160 
     69 H          -2.630273    0.749544   -5.154132 H         1 <1>         0.029038 
     70 H          -3.056442   -0.908466   -4.670857 H         1 <1>         0.029038 
     71 H          -0.222109    0.229390   -4.935583 H         1 <1>         0.059852 
     72 H          -0.285759   -0.857041   -7.000628 H         1 <1>         0.209800 
     73 H           1.362355   -1.983927   -5.625622 H         1 <1>         0.023587 
     74 H           1.619046   -1.192680   -4.095348 H         1 <1>         0.023587 
     75 H           1.482802   -2.964325   -4.174734 H         1 <1>         0.023587 
     76 H          -0.746561   -4.080565   -4.778092 H         1 <1>         0.023587 
     77 H          -0.618850   -3.152629   -6.276044 H         1 <1>         0.023587 
     78 H          -2.118060   -3.093483   -5.344890 H         1 <1>         0.023587 
@<TRIPOS>BOND
     1    1    2 1    
     2    1    3 1    
     3    1   16 2    
     4    2    6 1    
     5    2   18 1    
     6    2   20 1    
     7    3    4 1    
     8    3    7 1    
     9    3   35 1    
    10    4    5 1    
    11    4   10 1    
    12    4   11 1    
    13    5    6 1    
    14    5   36 1    
    15    5   37 1    
    16    6   38 1    
    17    6   39 1    
    18    7    8 1    
    19    7   40 1    
    20    7   41 1    
    21    8    9 1    
    22    8   12 1    
    23    8   13 1    
    24    9   10 1    
    25    9   42 1    
    26    9   43 1    
    27   10   14 1    
    28   10   44 1    
    29   11   45 1    
    30   11   46 1    
    31   11   47 1    
    32   12   14 1    
    33   12   15 2    
    34   13   48 1    
    35   13   49 1    
    36   13   50 1    
    37   16   17 1    
    38   16   51 1    
    39   17   19 1    
    40   17   34 2    
    41   18   52 1    
    42   18   53 1    
    43   18   54 1    
    44   19   20 1    
    45   19   21 1    
    46   19   55 1    
    47   20   22 1    
    48   20   25 1    
    49   21   23 1    
    50   21   26 1    
    51   21   27 1    
    52   22   56 1    
    53   22   57 1    
    54   22   58 1    
    55   23   24 1    
    56   23   30 1    
    57   23   59 1    
    58   24   25 1    
    59   24   60 1    
    60   24   61 1    
    61   25   62 1    
    62   25   63 1    
    63   26   64 1    
    64   26   65 1    
    65   26   66 1    
    66   27   28 1    
    67   27   67 1    
    68   27   68 1    
    69   28   29 1    
    70   28   69 1    
    71   28   70 1    
    72   29   30 1    
    73   29   31 1    
    74   29   71 1    
    75   30   32 1    
    76   30   33 1    
    77   31   72 1    
    78   32   73 1    
    79   32   74 1    
    80   32   75 1    
    81   33   76 1    
    82   33   77 1    
    83   33   78 1    
@<TRIPOS>SUBSTRUCTURE
     1 ****        1 TEMP              0 ****  ****    0 ROOT 
@<TRIPOS>NORMAL
@<TRIPOS>FF_PBC
FORCE_FIELD_SETUP_FEATURE Force Field Setup information
v1.0  0 0.000000 0.000000 0.000000 0.000000 0.000000 0.000000 NONE 0 0 0 0 1 0 0 0 0 0 0 0 0
