@<TRIPOS>MOLECULE
MOL004801
   57    60     1     1     0
SMALL
GASTEIGER


@<TRIPOS>ATOM
      1 O           0.578046   -2.938459    0.780414 O.3       1 <1>        -0.312468 
      2 C          -0.579788   -3.786379    0.760925 C.3       1 <1>         0.193644 
      3 C          -0.176202   -5.149049    1.377255 C.3       1 <1>         0.134509 
      4 O           0.785676   -5.805377    0.526587 O.3       1 <1>        -0.384091 
      5 C          -1.425858   -6.047644    1.547969 C.3       1 <1>         0.114074 
      6 O          -1.038333   -7.248034    2.244189 O.3       1 <1>        -0.386401 
      7 C          -2.528022   -5.295144    2.333383 C.3       1 <1>         0.111896 
      8 O          -3.702302   -6.129504    2.343675 O.3       1 <1>        -0.386488 
      9 C          -2.810113   -3.926724    1.657223 C.3       1 <1>         0.113017 
     10 O          -1.598013   -3.152876    1.560106 O.3       1 <1>        -0.340168 
     11 C          -3.826214   -3.108321    2.492289 C.3       1 <1>         0.073015 
     12 O          -5.023097   -3.887088    2.690162 O.3       1 <1>        -0.392366 
     13 C           0.546796   -1.628765    0.290029 C.ar      1 <1>         0.081928 
     14 C          -0.680637   -1.022645   -0.289804 C.ar      1 <1>        -0.031070 
     15 C          -0.657816    0.302695   -0.758945 C.ar      1 <1>        -0.051190 
     16 C           0.584119    1.113337   -0.690837 C.ar      1 <1>         0.012085 
     17 C           1.754384    0.528942   -0.144765 C.ar      1 <1>         0.087452 
     18 C           1.719638   -0.864961    0.350954 C.ar      1 <1>        -0.001079 
     19 C           0.574818    2.557041   -1.210209 C.3       1 <1>         0.097041 
     20 C           2.030738    3.086892   -1.344803 C.3       1 <1>         0.065744 
     21 C           2.848772    2.668959   -0.098299 C.3       1 <1>         0.171516 
     22 O           2.949660    1.242200   -0.069215 O.3       1 <1>        -0.314358 
     23 C           2.138109    4.610763   -1.534623 C.ar      1 <1>        -0.036688 
     24 C           2.890035    5.152672   -2.695827 C.ar      1 <1>        -0.058051 
     25 C           3.006909    6.537402   -2.889011 C.ar      1 <1>        -0.061489 
     26 C           2.379137    7.476346   -1.931085 C.ar      1 <1>        -0.061741 
     27 C           1.669954    6.978442   -0.830104 C.ar      1 <1>        -0.061489 
     28 C           1.549347    5.515891   -0.620612 C.ar      1 <1>        -0.058051 
     29 O          -0.159179    2.517418   -2.454085 O.3       1 <1>        -0.374318 
     30 C          -0.447281    3.804641   -3.033638 C.3       1 <1>         0.037260 
     31 O           4.208434    3.130568   -0.161183 O.3       1 <1>        -0.366001 
     32 H          -0.899054   -3.945978   -0.282537 H         1 <1>         0.094159 
     33 H           0.262677   -4.947011    2.369627 H         1 <1>         0.067108 
     34 H           1.058393   -6.645481    0.884165 H         1 <1>         0.210111 
     35 H          -1.808504   -6.304949    0.544739 H         1 <1>         0.064758 
     36 H          -1.780556   -7.830232    2.384024 H         1 <1>         0.210005 
     37 H          -2.166725   -5.127545    3.362513 H         1 <1>         0.064673 
     38 H          -4.442064   -5.701340    2.769655 H         1 <1>         0.210004 
     39 H          -3.249023   -4.099784    0.659623 H         1 <1>         0.064668 
     40 H          -4.049837   -2.170022    1.956169 H         1 <1>         0.058370 
     41 H          -3.368630   -2.855772    3.463735 H         1 <1>         0.058370 
     42 H          -5.691813   -3.418461    3.182625 H         1 <1>         0.209508 
     43 H          -1.604661   -1.583485   -0.361549 H         1 <1>         0.064341 
     44 H          -1.559021    0.739469   -1.177906 H         1 <1>         0.062270 
     45 H           2.619167   -1.300584    0.769462 H         1 <1>         0.066929 
     46 H           0.006906    3.120696   -0.454994 H         1 <1>         0.065457 
     47 H           2.481463    2.571739   -2.207268 H         1 <1>         0.042709 
     48 H           2.365725    3.016463    0.832136 H         1 <1>         0.091877 
     49 H           3.357167    4.477958   -3.406043 H         1 <1>         0.062041 
     50 H           3.557932    6.923854   -3.740616 H         1 <1>         0.061767 
     51 H           2.469920    8.546657   -2.085021 H         1 <1>         0.061758 
     52 H           1.207689    7.664991   -0.127650 H         1 <1>         0.061767 
     53 H           1.005944    5.158137    0.245845 H         1 <1>         0.062041 
     54 H          -1.146691    3.634447   -3.865206 H         1 <1>         0.052376 
     55 H          -0.927345    4.487179   -2.314772 H         1 <1>         0.052376 
     56 H           0.450911    4.277748   -3.451467 H         1 <1>         0.052376 
     57 H           4.288114    4.078274   -0.147208 H         1 <1>         0.212510 
@<TRIPOS>BOND
     1    1    2 1    
     2    1   13 1    
     3    2    3 1    
     4    2   10 1    
     5    2   32 1    
     6    3    4 1    
     7    3    5 1    
     8    3   33 1    
     9    4   34 1    
    10    5    6 1    
    11    5    7 1    
    12    5   35 1    
    13    6   36 1    
    14    7    8 1    
    15    7    9 1    
    16    7   37 1    
    17    8   38 1    
    18    9   10 1    
    19    9   11 1    
    20    9   39 1    
    21   11   12 1    
    22   11   40 1    
    23   11   41 1    
    24   12   42 1    
    25   13   14 1    
    26   13   18 2    
    27   14   15 2    
    28   14   43 1    
    29   15   16 1    
    30   15   44 1    
    31   16   17 2    
    32   16   19 1    
    33   17   18 1    
    34   17   22 1    
    35   18   45 1    
    36   19   20 1    
    37   19   29 1    
    38   19   46 1    
    39   20   21 1    
    40   20   23 1    
    41   20   47 1    
    42   21   22 1    
    43   21   31 1    
    44   21   48 1    
    45   23   24 1    
    46   23   28 2    
    47   24   25 2    
    48   24   49 1    
    49   25   26 1    
    50   25   50 1    
    51   26   27 2    
    52   26   51 1    
    53   27   28 1    
    54   27   52 1    
    55   28   53 1    
    56   29   30 1    
    57   30   54 1    
    58   30   55 1    
    59   30   56 1    
    60   31   57 1    
@<TRIPOS>SUBSTRUCTURE
     1 ****        1 TEMP              0 ****  ****    0 ROOT 
@<TRIPOS>NORMAL
@<TRIPOS>FF_PBC
FORCE_FIELD_SETUP_FEATURE Force Field Setup information
v1.0  0 0.000000 0.000000 0.000000 0.000000 0.000000 0.000000 NONE 0 0 0 0 1 0 0 0 0 0 0 0 0
