@<TRIPOS>MOLECULE
MOL004925
   51    54     1     1     0
SMALL
GASTEIGER


@<TRIPOS>ATOM
      1 O          -0.724450   -1.594412    0.964691 O.3       1 <1>        -0.361023 
      2 O          -1.535779   -1.449638   -2.651791 O.3       1 <1>        -0.386221 
      3 O           1.147354   -2.617119   -2.651942 O.3       1 <1>        -0.386477 
      4 O           1.871972   -4.016797   -0.186242 O.3       1 <1>        -0.386490 
      5 O          -0.384015    1.182189    0.101864 O.3       1 <1>        -0.307352 
      6 O          -0.046074   -2.826453    3.461795 O.3       1 <1>        -0.392367 
      7 O          -4.430674   -1.590665   -0.344599 O.3       1 <1>        -0.359307 
      8 O          -4.855708    3.275797    0.154367 O.3       1 <1>        -0.358955 
      9 O          -2.478409    4.579373    0.379808 O.2       1 <1>        -0.287017 
     10 O           6.073808    1.871956    0.103689 O.3       1 <1>        -0.359832 
     11 C          -0.669122   -1.483543   -1.501662 C.3       1 <1>         0.113849 
     12 C           0.246395   -2.734852   -1.534151 C.3       1 <1>         0.112059 
     13 C          -1.542340   -1.509364   -0.220097 C.3       1 <1>         0.117288 
     14 C           1.044458   -2.837748   -0.206503 C.3       1 <1>         0.111744 
     15 C           0.080967   -2.790811    1.009689 C.3       1 <1>         0.110816 
     16 C          -2.417863   -0.250246   -0.124716 C.ar      1 <1>         0.044685 
     17 C           0.863389   -2.791290    2.348061 C.3       1 <1>         0.072938 
     18 C          -1.778886    1.080464    0.037800 C.ar      1 <1>         0.104536 
     19 C          -3.822605   -0.341882   -0.189239 C.ar      1 <1>         0.083256 
     20 C          -2.571041    2.223425    0.119375 C.ar      1 <1>         0.082300 
     21 C          -4.650848    0.886705   -0.088774 C.ar      1 <1>        -0.000948 
     22 C          -4.051068    2.136869    0.062108 C.ar      1 <1>         0.088333 
     23 C          -1.852628    3.537586    0.263454 C.2       1 <1>         0.193519 
     24 C           0.273321    2.352653    0.164294 C.2       1 <1>         0.093878 
     25 C          -0.387617    3.515865    0.252083 C.2       1 <1>         0.016919 
     26 C           1.786968    2.285928    0.133857 C.ar      1 <1>         0.005751 
     27 C           2.593965    3.316982   -0.383951 C.ar      1 <1>        -0.049682 
     28 C           2.443945    1.065626    0.663762 C.ar      1 <1>        -0.049682 
     29 C           4.071450    3.186098   -0.393512 C.ar      1 <1>        -0.031304 
     30 C           3.837715    0.938765    0.648500 C.ar      1 <1>        -0.031304 
     31 C           4.684407    2.025371    0.105489 C.ar      1 <1>         0.072619 
     32 H          -0.020198   -0.593049   -1.494835 H         1 <1>         0.064945 
     33 H          -0.390370   -3.628050   -1.656991 H         1 <1>         0.064684 
     34 H          -2.191710   -2.397436   -0.271152 H         1 <1>         0.067491 
     35 H           1.719348   -1.969215   -0.154718 H         1 <1>         0.064671 
     36 H          -0.565062   -3.685179    1.009077 H         1 <1>         0.064591 
     37 H           1.501938   -1.895789    2.412221 H         1 <1>         0.058369 
     38 H           1.508024   -3.681430    2.408366 H         1 <1>         0.058369 
     39 H          -1.043445   -1.450657   -3.468044 H         1 <1>         0.210016 
     40 H           1.757617   -3.347721   -2.699807 H         1 <1>         0.210004 
     41 H           1.378705   -4.829339   -0.239049 H         1 <1>         0.210004 
     42 H          -5.732825    0.825830   -0.130683 H         1 <1>         0.066933 
     43 H          -0.644951   -2.084397    3.451133 H         1 <1>         0.209508 
     44 H           0.119513    4.475487    0.325150 H         1 <1>         0.068219 
     45 H          -5.376104   -1.556054   -0.438195 H         1 <1>         0.217329 
     46 H          -4.361135    4.085885    0.243769 H         1 <1>         0.217342 
     47 H           2.155304    4.219048   -0.793560 H         1 <1>         0.062503 
     48 H           1.835139    0.265791    1.069428 H         1 <1>         0.062503 
     49 H           4.672109    3.996898   -0.791111 H         1 <1>         0.064339 
     50 H           4.308780    0.042503    1.037525 H         1 <1>         0.064339 
     51 H           6.550536    2.580846   -0.313733 H         1 <1>         0.217313 
@<TRIPOS>BOND
     1   13    1 1    
     2    1   15 1    
     3   11    2 1    
     4    2   39 1    
     5   12    3 1    
     6    3   40 1    
     7   14    4 1    
     8    4   41 1    
     9    5   18 1    
    10   24    5 1    
    11   17    6 1    
    12    6   43 1    
    13   19    7 1    
    14    7   45 1    
    15   22    8 1    
    16    8   46 1    
    17   23    9 2    
    18   31   10 1    
    19   10   51 1    
    20   11   12 1    
    21   13   11 1    
    22   11   32 1    
    23   12   14 1    
    24   12   33 1    
    25   16   13 1    
    26   13   34 1    
    27   15   14 1    
    28   14   35 1    
    29   15   17 1    
    30   15   36 1    
    31   18   16 1    
    32   16   19 2    
    33   17   37 1    
    34   17   38 1    
    35   18   20 2    
    36   19   21 1    
    37   20   22 1    
    38   23   20 1    
    39   22   21 2    
    40   21   42 1    
    41   25   23 1    
    42   24   25 2    
    43   26   24 1    
    44   25   44 1    
    45   27   26 2    
    46   26   28 1    
    47   29   27 1    
    48   27   47 1    
    49   28   30 2    
    50   28   48 1    
    51   29   31 2    
    52   29   49 1    
    53   30   31 1    
    54   30   50 1    
@<TRIPOS>SUBSTRUCTURE
     1 ****        2 TEMP              0 ****  ****    0 ROOT 
@<TRIPOS>NORMAL
@<TRIPOS>FF_PBC
FORCE_FIELD_SETUP_FEATURE Force Field Setup information
v1.0  0 0.000000 0.000000 0.000000 0.000000 0.000000 0.000000 NONE 0 0 0 0 1 0 0 0 0 0 0 0 0
