@<TRIPOS>MOLECULE
MOL004628
   43    46     1     1     0
SMALL
GASTEIGER


@<TRIPOS>ATOM
      1 C           0.925959   -3.301505    0.349655 C.3       1 <1>        -0.033554 
      2 C           1.622638   -3.887671   -0.917713 C.3       1 <1>        -0.043099 
      3 C           1.929632   -2.798670   -1.986018 C.3       1 <1>         0.024223 
      4 C           2.240713   -1.491788   -1.307104 C.2       1 <1>         0.215816 
      5 N           1.405391   -1.070261   -0.323197 N.am      1 <1>        -0.297810 
      6 C           0.269719   -1.930879    0.031464 C.3       1 <1>         0.029995 
      7 C           1.817667    0.105315    0.444485 C.3       1 <1>         0.019231 
      8 C           0.785405    0.630176    1.477832 C.3       1 <1>        -0.009152 
      9 C          -0.634717   -1.408358    1.192519 C.3       1 <1>        -0.009243 
     10 C           0.192740   -0.594788    2.217624 C.3       1 <1>        -0.041658 
     11 C          -1.782646   -0.520609    0.633659 C.3       1 <1>         0.003705 
     12 C          -0.373457    1.475311    0.868892 C.3       1 <1>         0.017010 
     13 N          -1.185007    0.645792   -0.051908 N.3       1 <1>        -0.298585 
     14 C           0.078482    2.760368    0.128704 C.3       1 <1>        -0.010835 
     15 C          -1.153880    3.648354   -0.202247 C.3       1 <1>         0.057841 
     16 C          -2.418100    2.777956   -0.473005 C.3       1 <1>        -0.013980 
     17 C          -2.027258    1.385799   -1.027413 C.3       1 <1>         0.001525 
     18 H          -0.997352    1.808025    1.717086 H         1 <1>         0.046648 
     19 O          -0.807476    4.454455   -1.344990 O.3       1 <1>        -0.391691 
     20 H          -0.382311   -2.082413   -0.843891 H         1 <1>         0.050346 
     21 H          -1.361642    4.315850    0.654923 H         1 <1>         0.059398 
     22 O           3.234754   -0.871494   -1.649923 O.2       1 <1>        -0.275595 
     23 H           0.187922   -4.027607    0.728763 H         1 <1>         0.028330 
     24 H           1.669454   -3.131803    1.146115 H         1 <1>         0.028330 
     25 H           0.985715   -4.655228   -1.389767 H         1 <1>         0.027038 
     26 H           2.558992   -4.382728   -0.607914 H         1 <1>         0.027038 
     27 H           1.063682   -2.628338   -2.644812 H         1 <1>         0.035834 
     28 H           2.768652   -3.120620   -2.624378 H         1 <1>         0.035834 
     29 H           2.709635   -0.208650    1.012671 H         1 <1>         0.046774 
     30 H           2.142282    0.917208   -0.221426 H         1 <1>         0.046774 
     31 H           1.315756    1.270390    2.205798 H         1 <1>         0.033115 
     32 H          -1.111531   -2.258632    1.709966 H         1 <1>         0.033115 
     33 H          -0.454305   -0.263051    3.046317 H         1 <1>         0.027255 
     34 H           0.994782   -1.215597    2.647963 H         1 <1>         0.027255 
     35 H          -2.392148   -1.118899   -0.062848 H         1 <1>         0.042989 
     36 H          -2.449937   -0.182584    1.443459 H         1 <1>         0.042989 
     37 H           0.810976    3.332138    0.721081 H         1 <1>         0.030526 
     38 H           0.554794    2.476271   -0.821308 H         1 <1>         0.030526 
     39 H          -3.097744    3.293981   -1.170066 H         1 <1>         0.030241 
     40 H          -2.973477    2.607907    0.464335 H         1 <1>         0.030241 
     41 H          -2.942821    0.830127   -1.287698 H         1 <1>         0.042740 
     42 H          -1.447137    1.513859   -1.954871 H         1 <1>         0.042740 
     43 H          -1.486397    5.073191   -1.595217 H         1 <1>         0.209778 
@<TRIPOS>BOND
     1    1    2 1    
     2    1    6 1    
     3    1   23 1    
     4    1   24 1    
     5    2    3 1    
     6    2   25 1    
     7    2   26 1    
     8    3    4 1    
     9    3   27 1    
    10    3   28 1    
    11    4    5 1    
    12    4   22 2    
    13    5    6 1    
    14    5    7 1    
    15    6    9 1    
    16    6   20 1    
    17    7    8 1    
    18    7   29 1    
    19    7   30 1    
    20    8   10 1    
    21    8   12 1    
    22    8   31 1    
    23    9   10 1    
    24    9   11 1    
    25    9   32 1    
    26   10   33 1    
    27   10   34 1    
    28   11   13 1    
    29   11   35 1    
    30   11   36 1    
    31   12   13 1    
    32   12   14 1    
    33   12   18 1    
    34   13   17 1    
    35   14   15 1    
    36   14   37 1    
    37   14   38 1    
    38   15   16 1    
    39   15   19 1    
    40   15   21 1    
    41   16   17 1    
    42   16   39 1    
    43   16   40 1    
    44   17   41 1    
    45   17   42 1    
    46   19   43 1    
@<TRIPOS>SUBSTRUCTURE
     1 ****        1 TEMP              0 ****  ****    0 ROOT 
@<TRIPOS>NORMAL
@<TRIPOS>FF_PBC
FORCE_FIELD_SETUP_FEATURE Force Field Setup information
v1.0  0 0.000000 0.000000 0.000000 0.000000 0.000000 0.000000 NONE 0 0 0 0 1 0 0 0 0 0 0 0 0
