@<TRIPOS>MOLECULE
MOL001965
   90    95     1     1     0
SMALL
GASTEIGER


@<TRIPOS>ATOM
      1 C           2.391136    7.280623    0.669525 C.3       1 <1>         0.003178 
      2 N           2.436182    5.823975    0.411731 N.3       1 <1>        -0.297813 
      3 C           3.717235    5.324258   -0.165217 C.3       1 <1>         0.039633 
      4 C           4.935302    6.219776    0.135219 C.ar      1 <1>        -0.024158 
      5 C           4.852798    7.288497    1.040895 C.ar      1 <1>        -0.038877 
      6 C           3.510132    7.629048    1.672989 C.3       1 <1>        -0.014464 
      7 C           6.236316    5.960190   -0.531503 C.ar      1 <1>        -0.024202 
      8 C           7.390644    6.714103   -0.238208 C.ar      1 <1>         0.105975 
      9 C           7.305107    7.814244    0.762448 C.ar      1 <1>         0.105927 
     10 C           6.057538    8.081886    1.381778 C.ar      1 <1>        -0.025619 
     11 O           8.428388    8.572083    1.108394 O.3       1 <1>        -0.345333 
     12 C           8.378904    9.975867    0.807218 C.3       1 <1>         0.043136 
     13 O           8.577169    6.383545   -0.908164 O.3       1 <1>        -0.345332 
     14 C           9.784277    7.147923   -0.766974 C.3       1 <1>         0.043136 
     15 C          -2.445822   -8.729254   -1.653893 C.3       1 <1>         0.043136 
     16 O          -2.018855   -7.378192   -1.412312 O.3       1 <1>        -0.345333 
     17 C          -0.671142   -7.032799   -1.219241 C.ar      1 <1>         0.105927 
     18 C          -0.321734   -5.611099   -0.969551 C.ar      1 <1>         0.105975 
     19 C           1.040816   -5.247109   -0.758069 C.ar      1 <1>        -0.024202 
     20 C           2.115006   -6.268800   -0.754753 C.ar      1 <1>        -0.024158 
     21 C           1.780390   -7.613246   -1.029430 C.ar      1 <1>        -0.038877 
     22 C           0.368057   -8.002798   -1.258187 C.ar      1 <1>        -0.025619 
     23 C           3.563249   -5.844715   -0.458921 C.3       1 <1>         0.039632 
     24 N           4.520949   -6.919723   -0.816972 N.3       1 <1>        -0.297813 
     25 C           4.137084   -8.267824   -0.346285 C.3       1 <1>         0.003178 
     26 C           2.860241   -8.693511   -1.101724 C.3       1 <1>        -0.014464 
     27 C           3.694456   -5.427548    1.035067 C.3       1 <1>        -0.007883 
     28 C           3.092611   -4.043161    1.298959 C.ar      1 <1>        -0.045405 
     29 C           1.910389   -3.868609    2.056318 C.ar      1 <1>        -0.056059 
     30 C           1.353611   -2.512085    2.266431 C.ar      1 <1>        -0.030910 
     31 C           1.989297   -1.384634    1.713369 C.ar      1 <1>         0.083200 
     32 C           3.242531   -1.568661    0.936990 C.ar      1 <1>        -0.030910 
     33 C           3.775604   -2.851395    0.740515 C.ar      1 <1>        -0.056059 
     34 C           5.967801   -6.609596   -0.713396 C.3       1 <1>        -0.012160 
     35 C           1.185883    5.285820   -0.185368 C.3       1 <1>        -0.012160 
     36 O           1.431339   -0.115120    1.905168 O.3       1 <1>        -0.306721 
     37 C           1.754082    0.800532    0.904613 C.ar      1 <1>         0.112912 
     38 C           2.649300    1.855138    1.179377 C.ar      1 <1>        -0.025390 
     39 C           3.074869    2.783358    0.102115 C.ar      1 <1>        -0.042950 
     40 C           2.572087    2.577817   -1.210579 C.ar      1 <1>        -0.055921 
     41 C           1.592906    1.498289   -1.479179 C.ar      1 <1>        -0.029123 
     42 C           1.176037    0.647302   -0.453676 C.ar      1 <1>         0.102980 
     43 O           0.217128   -0.333520   -0.709819 O.3       1 <1>        -0.357257 
     44 C           4.053095    3.923232    0.426639 C.3       1 <1>        -0.007803 
     45 O          -1.349293   -4.657308   -0.956561 O.3       1 <1>        -0.345332 
     46 C          -1.104822   -3.280950   -0.630536 C.3       1 <1>         0.043136 
     47 H           2.518089    7.832006   -0.276375 H         1 <1>         0.042976 
     48 H           1.435552    7.585482    1.126718 H         1 <1>         0.042976 
     49 H           3.650671    5.295515   -1.263051 H         1 <1>         0.051530 
     50 H           3.392180    7.044067    2.597622 H         1 <1>         0.032566 
     51 H           3.472383    8.703113    1.915319 H         1 <1>         0.032566 
     52 H           6.317785    5.171181   -1.270405 H         1 <1>         0.064743 
     53 H           5.982667    8.868319    2.122629 H         1 <1>         0.064693 
     54 H           9.355742   10.409965    1.067152 H         1 <1>         0.052871 
     55 H           7.603579   10.493553    1.389848 H         1 <1>         0.052871 
     56 H           8.194370   10.135461   -0.266354 H         1 <1>         0.052871 
     57 H          10.526206    6.677692   -1.427761 H         1 <1>         0.052871 
     58 H           9.639132    8.187661   -1.095916 H         1 <1>         0.052871 
     59 H          10.173833    7.120676    0.262000 H         1 <1>         0.052871 
     60 H          -3.541280   -8.724907   -1.760189 H         1 <1>         0.052871 
     61 H          -2.010081   -9.117693   -2.587009 H         1 <1>         0.052871 
     62 H          -2.184353   -9.384380   -0.808813 H         1 <1>         0.052871 
     63 H           1.320231   -4.214367   -0.602968 H         1 <1>         0.064743 
     64 H           0.150281   -9.044704   -1.452646 H         1 <1>         0.064693 
     65 H           3.786194   -4.989859   -1.118634 H         1 <1>         0.051530 
     66 H           4.928897   -9.001298   -0.569275 H         1 <1>         0.042976 
     67 H           3.968228   -8.271570    0.741889 H         1 <1>         0.042976 
     68 H           2.485294   -9.650464   -0.702577 H         1 <1>         0.032566 
     69 H           3.103128   -8.821740   -2.168623 H         1 <1>         0.032566 
     70 H           4.750361   -5.357638    1.332951 H         1 <1>         0.033161 
     71 H           3.218853   -6.182996    1.677852 H         1 <1>         0.033161 
     72 H           1.397452   -4.724248    2.483583 H         1 <1>         0.062109 
     73 H           0.444421   -2.384910    2.845105 H         1 <1>         0.064352 
     74 H           3.762554   -0.715205    0.516305 H         1 <1>         0.064352 
     75 H           4.694958   -2.968327    0.177570 H         1 <1>         0.062109 
     76 H           6.173365   -5.549537   -0.932132 H         1 <1>         0.039081 
     77 H           6.354107   -6.848004    0.290846 H         1 <1>         0.039081 
     78 H           6.515316   -7.218696   -1.449481 H         1 <1>         0.039081 
     79 H           1.020550    4.256806    0.157031 H         1 <1>         0.039081 
     80 H           0.290480    5.850521    0.113818 H         1 <1>         0.039081 
     81 H           1.238871    5.302619   -1.283922 H         1 <1>         0.039081 
     82 H           3.040101    1.964963    2.184657 H         1 <1>         0.064701 
     83 H           2.887700    3.209383   -2.032573 H         1 <1>         0.062110 
     84 H           1.183513    1.371242   -2.475006 H         1 <1>         0.064412 
     85 H          -0.189259   -0.620122    0.101204 H         1 <1>         0.217422 
     86 H           4.115342    4.054632    1.517645 H         1 <1>         0.033162 
     87 H           5.033728    3.566809    0.076208 H         1 <1>         0.033162 
     88 H          -2.071631   -2.758795   -0.650787 H         1 <1>         0.052871 
     89 H          -0.441529   -2.810728   -1.371517 H         1 <1>         0.052871 
     90 H          -0.680366   -3.189033    0.379930 H         1 <1>         0.052871 
@<TRIPOS>BOND
     1    2    1 1    
     2    1    6 1    
     3    1   47 1    
     4    1   48 1    
     5    3    2 1    
     6    2   35 1    
     7    3    4 1    
     8   44    3 1    
     9    3   49 1    
    10    4    5 2    
    11    4    7 1    
    12    5    6 1    
    13    5   10 1    
    14    6   50 1    
    15    6   51 1    
    16    7    8 2    
    17    7   52 1    
    18    8    9 1    
    19    8   13 1    
    20   10    9 2    
    21    9   11 1    
    22   10   53 1    
    23   11   12 1    
    24   12   54 1    
    25   12   55 1    
    26   12   56 1    
    27   13   14 1    
    28   14   57 1    
    29   14   58 1    
    30   14   59 1    
    31   16   15 1    
    32   15   60 1    
    33   15   61 1    
    34   15   62 1    
    35   17   16 1    
    36   18   17 1    
    37   22   17 2    
    38   19   18 2    
    39   18   45 1    
    40   20   19 1    
    41   19   63 1    
    42   20   21 2    
    43   23   20 1    
    44   21   22 1    
    45   21   26 1    
    46   22   64 1    
    47   23   24 1    
    48   27   23 1    
    49   23   65 1    
    50   24   25 1    
    51   24   34 1    
    52   25   26 1    
    53   25   66 1    
    54   25   67 1    
    55   26   68 1    
    56   26   69 1    
    57   28   27 1    
    58   27   70 1    
    59   27   71 1    
    60   29   28 2    
    61   33   28 1    
    62   30   29 1    
    63   29   72 1    
    64   31   30 2    
    65   30   73 1    
    66   31   32 1    
    67   36   31 1    
    68   32   33 2    
    69   32   74 1    
    70   33   75 1    
    71   34   76 1    
    72   34   77 1    
    73   34   78 1    
    74   35   79 1    
    75   35   80 1    
    76   35   81 1    
    77   37   36 1    
    78   38   37 2    
    79   37   42 1    
    80   39   38 1    
    81   38   82 1    
    82   39   40 2    
    83   39   44 1    
    84   40   41 1    
    85   40   83 1    
    86   41   42 2    
    87   41   84 1    
    88   42   43 1    
    89   43   85 1    
    90   44   86 1    
    91   44   87 1    
    92   45   46 1    
    93   46   88 1    
    94   46   89 1    
    95   46   90 1    
@<TRIPOS>SUBSTRUCTURE
     1 ****       15 TEMP              0 ****  ****    0 ROOT 
@<TRIPOS>NORMAL
@<TRIPOS>FF_PBC
FORCE_FIELD_SETUP_FEATURE Force Field Setup information
v1.0  0 0.000000 0.000000 0.000000 0.000000 0.000000 0.000000 NONE 0 0 0 0 1 0 0 0 0 0 0 0 0
