@<TRIPOS>MOLECULE
MOL003393
   39    40     1     1     0
SMALL
GASTEIGER


@<TRIPOS>ATOM
      1 C          -1.374899    0.848387   -0.742633 C.2       1 <1>        -0.066880 
      2 C          -1.775715   -1.489766   -0.612630 C.3       1 <1>        -0.021882 
      3 C          -0.803647   -0.356606   -0.838455 C.2       1 <1>        -0.063215 
      4 C          -0.734565    2.218703   -0.910617 C.3       1 <1>        -0.022172 
      5 C          -2.851324    0.729944   -0.456962 C.3       1 <1>        -0.030687 
      6 C          -2.935081   -0.722648    0.072979 C.3       1 <1>        -0.043037 
      7 C           0.637980   -0.661728   -1.157300 C.3       1 <1>        -0.009771 
      8 C           0.819506    2.223148   -0.737745 C.3       1 <1>        -0.043047 
      9 C           1.330164    1.273483    0.385966 C.3       1 <1>        -0.030676 
     10 C           1.499457   -0.188513   -0.000761 C.2       1 <1>        -0.066796 
     11 C          -1.288772   -2.670157    0.271221 C.3       1 <1>        -0.058674 
     12 C          -1.377649    3.286308    0.027542 C.3       1 <1>        -0.058684 
     13 C           2.361010   -0.995437    0.654741 C.2       1 <1>        -0.076158 
     14 C           3.115412   -0.555214    1.896558 C.3       1 <1>        -0.043786 
     15 C           2.657101   -2.415994    0.213274 C.3       1 <1>        -0.043786 
     16 H          -2.102810   -1.861999   -1.598094 H         1 <1>         0.034319 
     17 H          -0.958529    2.548059   -1.939950 H         1 <1>         0.034310 
     18 H          -3.264205    1.405707    0.306576 H         1 <1>         0.031033 
     19 H          -3.406375    0.853374   -1.400289 H         1 <1>         0.031033 
     20 H          -3.919931   -1.186049   -0.101129 H         1 <1>         0.027391 
     21 H          -2.749539   -0.700912    1.161152 H         1 <1>         0.027391 
     22 H           0.718079   -1.732311   -1.369206 H         1 <1>         0.035524 
     23 H           0.917551   -0.172328   -2.098595 H         1 <1>         0.035524 
     24 H           1.143265    3.250165   -0.500135 H         1 <1>         0.027391 
     25 H           1.331970    1.989337   -1.682606 H         1 <1>         0.027391 
     26 H           2.322284    1.664073    0.666351 H         1 <1>         0.031034 
     27 H           0.665025    1.346917    1.260028 H         1 <1>         0.031034 
     28 H          -0.599444   -3.328038   -0.277381 H         1 <1>         0.023544 
     29 H          -2.151694   -3.278606    0.583065 H         1 <1>         0.023544 
     30 H          -0.779196   -2.288822    1.169732 H         1 <1>         0.023544 
     31 H          -2.431839    3.465573   -0.231661 H         1 <1>         0.023544 
     32 H          -0.878184    4.263134   -0.062787 H         1 <1>         0.023544 
     33 H          -1.313237    2.959973    1.076604 H         1 <1>         0.023544 
     34 H           2.609012    0.238242    2.463966 H         1 <1>         0.027435 
     35 H           3.225678   -1.398691    2.595183 H         1 <1>         0.027435 
     36 H           4.118417   -0.207823    1.607286 H         1 <1>         0.027435 
     37 H           2.821856   -2.472599   -0.872785 H         1 <1>         0.027435 
     38 H           3.576037   -2.802900    0.679561 H         1 <1>         0.027435 
     39 H           1.827029   -3.077486    0.500136 H         1 <1>         0.027435 
@<TRIPOS>BOND
     1    1    3 2    
     2    1    4 1    
     3    1    5 1    
     4    3    2 1    
     5    2    6 1    
     6    2   11 1    
     7    2   16 1    
     8    3    7 1    
     9    4    8 1    
    10    4   12 1    
    11    4   17 1    
    12    5    6 1    
    13    5   18 1    
    14    5   19 1    
    15    6   20 1    
    16    6   21 1    
    17    7   10 1    
    18    7   22 1    
    19    7   23 1    
    20    8    9 1    
    21    8   24 1    
    22    8   25 1    
    23    9   10 1    
    24    9   26 1    
    25    9   27 1    
    26   10   13 2    
    27   11   28 1    
    28   11   29 1    
    29   11   30 1    
    30   12   31 1    
    31   12   32 1    
    32   12   33 1    
    33   13   14 1    
    34   13   15 1    
    35   14   34 1    
    36   14   35 1    
    37   14   36 1    
    38   15   37 1    
    39   15   38 1    
    40   15   39 1    
@<TRIPOS>SUBSTRUCTURE
     1 ****        1 TEMP              0 ****  ****    0 ROOT 
@<TRIPOS>NORMAL
@<TRIPOS>FF_PBC
FORCE_FIELD_SETUP_FEATURE Force Field Setup information
v1.0  0 0.000000 0.000000 0.000000 0.000000 0.000000 0.000000 NONE 0 0 0 0 1 0 0 0 0 0 0 0 0
