@<TRIPOS>MOLECULE
MOL004702
   82    87     1     1     0
SMALL
GASTEIGER


@<TRIPOS>ATOM
      1 C           1.367784    0.855614    0.358116 C.3       1 <1>         0.009124 
      2 C           0.192116    1.538774   -0.449145 C.3       1 <1>         0.096991 
      3 C           0.881417   -0.546947    1.044060 C.3       1 <1>        -0.016907 
      4 C           0.633992    3.800900    0.048211 C.3       1 <1>         0.025848 
      5 C          -1.226368   -2.313934    1.107371 C.3       1 <1>        -0.021745 
      6 C          -0.292394    0.464517   -1.376777 C.2       1 <1>        -0.055410 
      7 C           0.547431    2.866930   -1.181502 C.3       1 <1>         0.002843 
      8 C          -0.649768   -0.712100   -0.862247 C.2       1 <1>        -0.081074 
      9 C          -0.604342   -0.926668    0.640194 C.3       1 <1>        -0.011151 
     10 C           1.934619    3.424196    0.821088 C.3       1 <1>         0.063916 
     11 C          -2.251660   -5.006582    0.076574 C.3       1 <1>         0.062974 
     12 C          -0.609797    3.346352    0.862837 C.3       1 <1>         0.057154 
     13 C           1.706981   -1.810571    0.596544 C.3       1 <1>        -0.046183 
     14 C          -0.296471   -3.462777    0.582191 C.3       1 <1>        -0.025216 
     15 C          -0.834520   -4.939377    0.739191 C.3       1 <1>         0.020282 
     16 C          -2.655095   -2.503887    0.477452 C.3       1 <1>        -0.044446 
     17 C          -0.485735    3.449119   -2.193115 C.3       1 <1>        -0.041426 
     18 C           0.041585    4.791796   -2.808473 C.3       1 <1>        -0.034485 
     19 C           2.587218    0.625301   -0.611865 C.3       1 <1>        -0.056020 
     20 O           2.075877    4.320184    1.942208 O.3       1 <1>        -0.391131 
     21 O          -0.852269    1.990862    0.438759 O.3       1 <1>        -0.367842 
     22 C          -1.450681   -2.328530    2.665975 C.3       1 <1>        -0.058736 
     23 C          -0.895954   -5.472649    2.206379 C.3       1 <1>        -0.054830 
     24 O           1.291579   -6.242013    0.678130 O.3       1 <1>        -0.394374 
     25 C           1.887202    1.957486    1.357716 C.3       1 <1>        -0.017380 
     26 C           1.175326   -3.216004    1.029100 C.3       1 <1>        -0.048517 
     27 C           0.577048    5.315166   -0.344462 C.3       1 <1>        -0.042066 
     28 C          -3.237196   -3.940305    0.626155 C.3       1 <1>        -0.025737 
     29 O          -2.811099   -6.320932    0.267926 O.3       1 <1>        -0.391162 
     30 C           1.010448    5.518972   -1.817036 C.3       1 <1>        -0.047195 
     31 C           0.076010   -5.952130   -0.041063 C.3       1 <1>         0.052200 
     32 C           1.059363   -0.465386    2.599589 C.3       1 <1>        -0.058408 
     33 C          -1.176111    5.703057   -3.156315 C.3       1 <1>        -0.059801 
     34 C           0.820970    4.522157   -4.133932 C.3       1 <1>        -0.059801 
     35 H          -0.327355    0.601937   -2.456000 H         1 <1>         0.059762 
     36 H           1.473205    2.783704   -1.759364 H         1 <1>         0.033899 
     37 H          -0.934477   -1.454882   -1.604789 H         1 <1>         0.057297 
     38 H          -1.288836   -0.182403    1.067268 H         1 <1>         0.035379 
     39 H           2.796253    3.590492    0.152295 H         1 <1>         0.059965 
     40 H          -2.136325   -4.829651   -1.008527 H         1 <1>         0.059936 
     41 H          -0.489712    3.459860    1.949957 H         1 <1>         0.056652 
     42 H          -1.531274    3.888487    0.607100 H         1 <1>         0.056652 
     43 H           2.735323   -1.754127    0.988320 H         1 <1>         0.027097 
     44 H           1.751285   -1.858393   -0.501356 H         1 <1>         0.027097 
     45 H          -0.255276   -3.335989   -0.508392 H         1 <1>         0.031300 
     46 H          -3.355176   -1.775939    0.920274 H         1 <1>         0.027158 
     47 H          -2.673267   -2.324361   -0.603123 H         1 <1>         0.027158 
     48 H          -0.692318    2.758704   -3.021718 H         1 <1>         0.027428 
     49 H          -1.448167    3.600839   -1.686220 H         1 <1>         0.027428 
     50 H           3.396791    0.071204   -0.121553 H         1 <1>         0.023625 
     51 H           3.085466    1.544816   -0.936317 H         1 <1>         0.023625 
     52 H           2.296308    0.095251   -1.529790 H         1 <1>         0.023625 
     53 H           2.872027    4.177999    2.445435 H         1 <1>         0.209802 
     54 H          -1.517622   -1.313277    3.077582 H         1 <1>         0.023534 
     55 H          -2.395198   -2.785875    2.978969 H         1 <1>         0.023534 
     56 H          -0.673727   -2.872621    3.211977 H         1 <1>         0.023534 
     57 H           0.067828   -5.339889    2.717030 H         1 <1>         0.023667 
     58 H          -1.672300   -5.005274    2.817523 H         1 <1>         0.023667 
     59 H          -1.118915   -6.550647    2.206922 H         1 <1>         0.023667 
     60 H           1.860101   -6.864991    0.234505 H         1 <1>         0.209420 
     61 H           2.896821    1.711331    1.724627 H         1 <1>         0.029668 
     62 H           1.241009    2.034949    2.235263 H         1 <1>         0.029668 
     63 H           1.834430   -3.942300    0.528676 H         1 <1>         0.026847 
     64 H           1.306740   -3.394475    2.102349 H         1 <1>         0.026847 
     65 H           1.225436    5.915943    0.312349 H         1 <1>         0.027239 
     66 H          -0.436224    5.728673   -0.240285 H         1 <1>         0.027239 
     67 H          -4.173764   -3.997076    0.044258 H         1 <1>         0.029039 
     68 H          -3.519912   -4.193981    1.655162 H         1 <1>         0.029039 
     69 H          -3.656870   -6.442851   -0.152272 H         1 <1>         0.209801 
     70 H           1.054634    6.594884   -2.053383 H         1 <1>         0.027062 
     71 H           2.038722    5.133314   -1.908161 H         1 <1>         0.027062 
     72 H          -0.456746   -6.910479   -0.166939 H         1 <1>         0.056334 
     73 H           0.312236   -5.573033   -1.049445 H         1 <1>         0.056334 
     74 H           0.982458   -1.416719    3.120415 H         1 <1>         0.023543 
     75 H           0.312613    0.199244    3.056513 H         1 <1>         0.023543 
     76 H           2.068522   -0.125545    2.867229 H         1 <1>         0.023543 
     77 H          -0.846025    6.628831   -3.652172 H         1 <1>         0.023499 
     78 H          -1.862665    5.176529   -3.837287 H         1 <1>         0.023499 
     79 H          -1.740568    5.984174   -2.255298 H         1 <1>         0.023499 
     80 H           1.233931    5.461700   -4.532808 H         1 <1>         0.023499 
     81 H           1.655378    3.823315   -3.973153 H         1 <1>         0.023499 
     82 H           0.159778    4.088968   -4.900296 H         1 <1>         0.023499 
@<TRIPOS>BOND
     1    1    2 1    
     2    3    1 1    
     3    1   19 1    
     4    1   25 1    
     5    6    2 1    
     6    2    7 1    
     7    2   21 1    
     8    9    3 1    
     9    3   13 1    
    10    3   32 1    
    11    7    4 1    
    12   10    4 1    
    13   12    4 1    
    14    4   27 1    
    15    5    9 1    
    16   14    5 1    
    17    5   16 1    
    18    5   22 1    
    19    8    6 2    
    20    6   35 1    
    21    7   17 1    
    22    7   36 1    
    23    9    8 1    
    24    8   37 1    
    25    9   38 1    
    26   10   20 1    
    27   25   10 1    
    28   10   39 1    
    29   15   11 1    
    30   11   28 1    
    31   11   29 1    
    32   11   40 1    
    33   21   12 1    
    34   12   41 1    
    35   12   42 1    
    36   13   26 1    
    37   13   43 1    
    38   13   44 1    
    39   14   15 1    
    40   14   26 1    
    41   14   45 1    
    42   15   23 1    
    43   15   31 1    
    44   16   28 1    
    45   16   46 1    
    46   16   47 1    
    47   17   18 1    
    48   17   48 1    
    49   17   49 1    
    50   18   30 1    
    51   18   33 1    
    52   18   34 1    
    53   19   50 1    
    54   19   51 1    
    55   19   52 1    
    56   20   53 1    
    57   22   54 1    
    58   22   55 1    
    59   22   56 1    
    60   23   57 1    
    61   23   58 1    
    62   23   59 1    
    63   31   24 1    
    64   24   60 1    
    65   25   61 1    
    66   25   62 1    
    67   26   63 1    
    68   26   64 1    
    69   27   30 1    
    70   27   65 1    
    71   27   66 1    
    72   28   67 1    
    73   28   68 1    
    74   29   69 1    
    75   30   70 1    
    76   30   71 1    
    77   31   72 1    
    78   31   73 1    
    79   32   74 1    
    80   32   75 1    
    81   32   76 1    
    82   33   77 1    
    83   33   78 1    
    84   33   79 1    
    85   34   80 1    
    86   34   81 1    
    87   34   82 1    
@<TRIPOS>SUBSTRUCTURE
     1 ****        1 TEMP              0 ****  ****    0 ROOT 
@<TRIPOS>NORMAL
@<TRIPOS>FF_PBC
FORCE_FIELD_SETUP_FEATURE Force Field Setup information
v1.0  0 0.000000 0.000000 0.000000 0.000000 0.000000 0.000000 NONE 0 0 0 0 1 0 0 0 0 0 0 0 0
