@<TRIPOS>MOLECULE
MOL000354
   35    37     1     1     0
SMALL
GASTEIGER


@<TRIPOS>ATOM
      1 C          -0.679597   -0.549170   -0.013416 C.2       1 <1>         0.123702 
      2 C          -1.803776   -1.223031   -0.315597 C.2       1 <1>         0.151807 
      3 C          -3.108003   -0.532556   -0.373221 C.2       1 <1>         0.223066 
      4 C          -3.139632    0.953881   -0.133591 C.ar      1 <1>         0.084553 
      5 C          -1.829630    1.566825    0.156832 C.ar      1 <1>         0.099001 
      6 O          -0.680231    0.777845    0.212675 O.3       1 <1>        -0.305130 
      7 C          -1.737818    2.943501    0.378239 C.ar      1 <1>        -0.000529 
      8 C          -2.956891    3.790290    0.329864 C.ar      1 <1>         0.077519 
      9 C          -4.204293    3.200564    0.063819 C.ar      1 <1>        -0.001302 
     10 C          -4.311127    1.738485   -0.176829 C.ar      1 <1>         0.088401 
     11 O          -4.119672   -1.171998   -0.612714 O.2       1 <1>        -0.284270 
     12 C           0.675674   -1.220816    0.085698 C.ar      1 <1>         0.010737 
     13 C           1.871237   -0.427962   -0.289795 C.ar      1 <1>        -0.019439 
     14 C           3.168942   -0.959971   -0.228705 C.ar      1 <1>         0.106041 
     15 C           3.359224   -2.371762    0.212958 C.ar      1 <1>         0.102473 
     16 C           2.224152   -3.131272    0.581481 C.ar      1 <1>        -0.028761 
     17 C           0.863023   -2.548251    0.531344 C.ar      1 <1>        -0.049435 
     18 O           4.235253   -0.122191   -0.590510 O.3       1 <1>        -0.345330 
     19 C           5.607736   -0.527054   -0.476780 C.3       1 <1>         0.043136 
     20 O           4.636732   -2.941845    0.264539 O.3       1 <1>        -0.357268 
     21 O          -2.885711    5.167507    0.546157 O.3       1 <1>        -0.359667 
     22 O          -5.543220    1.139483   -0.444807 O.3       1 <1>        -0.358954 
     23 O          -1.741426   -2.536032   -0.580497 O.3       1 <1>        -0.354461 
     24 H          -0.768377    3.382501    0.586481 H         1 <1>         0.066947 
     25 H          -5.087950    3.827693    0.035199 H         1 <1>         0.066923 
     26 H           1.750818    0.598098   -0.620685 H         1 <1>         0.065083 
     27 H           2.335235   -4.159672    0.908886 H         1 <1>         0.064422 
     28 H           0.027257   -3.159312    0.851283 H         1 <1>         0.062506 
     29 H           6.231044    0.329609   -0.772276 H         1 <1>         0.052871 
     30 H           5.832489   -1.363821   -1.155217 H         1 <1>         0.052871 
     31 H           5.857501   -0.794177    0.561517 H         1 <1>         0.052871 
     32 H           4.649873   -3.874193    0.448888 H         1 <1>         0.217422 
     33 H          -2.004262    5.485450    0.708407 H         1 <1>         0.217316 
     34 H          -6.273312    1.747585   -0.466617 H         1 <1>         0.217342 
     35 H          -2.591215   -2.916711   -0.783152 H         1 <1>         0.217537 
@<TRIPOS>BOND
     1    1    2 2    
     2    1    6 1    
     3    1   12 1    
     4    2    3 1    
     5    2   23 1    
     6    3    4 1    
     7    3   11 2    
     8    4    5 1    
     9    4   10 2    
    10    5    6 1    
    11    5    7 2    
    12    7    8 1    
    13    7   24 1    
    14    8    9 2    
    15    8   21 1    
    16    9   10 1    
    17    9   25 1    
    18   10   22 1    
    19   12   13 1    
    20   12   17 2    
    21   13   14 2    
    22   13   26 1    
    23   14   15 1    
    24   14   18 1    
    25   15   16 2    
    26   15   20 1    
    27   16   17 1    
    28   16   27 1    
    29   17   28 1    
    30   18   19 1    
    31   19   29 1    
    32   19   30 1    
    33   19   31 1    
    34   20   32 1    
    35   21   33 1    
    36   22   34 1    
    37   23   35 1    
@<TRIPOS>SUBSTRUCTURE
     1 ****        1 TEMP              0 ****  ****    0 ROOT 
@<TRIPOS>NORMAL
@<TRIPOS>FF_PBC
FORCE_FIELD_SETUP_FEATURE Force Field Setup information
v1.0  0 0.000000 0.000000 0.000000 0.000000 0.000000 0.000000 NONE 0 0 0 0 1 0 0 0 0 0 0 0 0
