@<TRIPOS>MOLECULE
MOL000208
   39    41     1     1     0
SMALL
GASTEIGER


@<TRIPOS>ATOM
      1 C           2.087496   -1.719270   -1.017172 C.3       1 <1>        -0.045999 
      2 C           2.847373   -0.958531    0.094250 C.3       1 <1>        -0.049635 
      3 C           2.112316    0.405223    0.163930 C.3       1 <1>        -0.040210 
      4 C           0.627618   -0.050334    0.100575 C.3       1 <1>        -0.028356 
      5 C          -0.368184    1.033475   -0.398593 C.3       1 <1>        -0.028671 
      6 C          -1.859541    0.594080   -0.334893 C.3       1 <1>        -0.031721 
      7 C          -2.275223   -0.730681    0.367181 C.3       1 <1>        -0.045745 
      8 C          -1.850812   -1.979995   -0.455508 C.3       1 <1>        -0.031447 
      9 C          -0.381170   -2.285632   -0.230255 C.2       1 <1>        -0.073235 
     10 C           0.598314   -1.292900   -0.835715 C.3       1 <1>        -0.016795 
     11 C          -1.370379    1.809114    0.498401 C.3       1 <1>        -0.028399 
     12 C          -0.007466   -3.350504    0.495863 C.2       1 <1>        -0.099175 
     13 C           2.536491    1.359364   -0.988862 C.3       1 <1>        -0.062136 
     14 C          -1.787171    3.195384   -0.063254 C.3       1 <1>        -0.059280 
     15 C          -1.231317    1.761753    2.046139 C.3       1 <1>        -0.059280 
     16 H           2.471846   -1.363559   -1.987778 H         1 <1>         0.027114 
     17 H           2.264806   -2.804103   -1.006212 H         1 <1>         0.027114 
     18 H           2.721184   -1.497022    1.048788 H         1 <1>         0.026812 
     19 H           3.926080   -0.862090   -0.109913 H         1 <1>         0.026812 
     20 H           2.340485    0.918684    1.115845 H         1 <1>         0.030106 
     21 H           0.406584   -0.392840    1.120685 H         1 <1>         0.031200 
     22 H          -0.152447    1.475124   -1.384051 H         1 <1>         0.031180 
     23 H          -2.418999    0.831935   -1.255311 H         1 <1>         0.030905 
     24 H          -3.376128   -0.695753    0.416276 H         1 <1>         0.027121 
     25 H          -1.920280   -0.847623    1.398458 H         1 <1>         0.027121 
     26 H          -2.058646   -1.825350   -1.525987 H         1 <1>         0.031008 
     27 H          -2.473574   -2.829942   -0.130842 H         1 <1>         0.031008 
     28 H           0.224833   -1.024187   -1.838703 H         1 <1>         0.034836 
     29 H           1.026414   -3.594269    0.725680 H         1 <1>         0.053449 
     30 H          -0.742196   -4.036226    0.916180 H         1 <1>         0.053449 
     31 H           2.077224    2.349939   -0.845636 H         1 <1>         0.023250 
     32 H           3.629101    1.493760   -0.979437 H         1 <1>         0.023250 
     33 H           2.241621    0.982061   -1.978160 H         1 <1>         0.023250 
     34 H          -2.748818    3.488753    0.383388 H         1 <1>         0.023516 
     35 H          -1.025217    3.939371    0.213201 H         1 <1>         0.023516 
     36 H          -1.896763    3.205498   -1.158376 H         1 <1>         0.023516 
     37 H          -0.853429    0.836741    2.491720 H         1 <1>         0.023516 
     38 H          -0.549770    2.569877    2.350450 H         1 <1>         0.023516 
     39 H          -2.221731    1.962500    2.480691 H         1 <1>         0.023516 
@<TRIPOS>BOND
     1    1    2 1    
     2    1   10 1    
     3    1   16 1    
     4    1   17 1    
     5    2    3 1    
     6    2   18 1    
     7    2   19 1    
     8    3    4 1    
     9    3   13 1    
    10    3   20 1    
    11    4    5 1    
    12    4   10 1    
    13    4   21 1    
    14    5    6 1    
    15    5   11 1    
    16    5   22 1    
    17    6    7 1    
    18    6   11 1    
    19    6   23 1    
    20    7    8 1    
    21    7   24 1    
    22    7   25 1    
    23    8    9 1    
    24    8   26 1    
    25    8   27 1    
    26    9   10 1    
    27    9   12 2    
    28   10   28 1    
    29   11   14 1    
    30   11   15 1    
    31   12   29 1    
    32   12   30 1    
    33   13   31 1    
    34   13   32 1    
    35   13   33 1    
    36   14   34 1    
    37   14   35 1    
    38   14   36 1    
    39   15   37 1    
    40   15   38 1    
    41   15   39 1    
@<TRIPOS>SUBSTRUCTURE
     1 ****        1 TEMP              0 ****  ****    0 ROOT 
@<TRIPOS>NORMAL
@<TRIPOS>FF_PBC
FORCE_FIELD_SETUP_FEATURE Force Field Setup information
v1.0  0 0.000000 0.000000 0.000000 0.000000 0.000000 0.000000 NONE 0 0 0 0 1 0 0 0 0 0 0 0 0
