@<TRIPOS>MOLECULE
MOL001930
   74    80     1     1     0
SMALL
GASTEIGER


@<TRIPOS>ATOM
      1 O           2.273994    0.198232    1.204270 O.3       1 <1>        -0.334402 
      2 O           0.763430   -1.139660    0.265708 O.3       1 <1>        -0.331668 
      3 O          -0.611388    0.061629    4.202802 O.3       1 <1>        -0.388410 
      4 O           1.914690    0.106708    5.200538 O.3       1 <1>        -0.386269 
      5 O           0.108214   -1.309370    2.437349 O.3       1 <1>        -0.311786 
      6 O           0.011938    0.400943   -1.585435 O.3       1 <1>        -0.306039 
      7 O           3.990875   -1.172591   -0.109750 O.3       1 <1>        -0.263241 
      8 O           4.372474    0.275444   -2.018292 O.2       1 <1>        -0.187391 
      9 O           0.301839   -3.543659    2.492890 O.2       1 <1>        -0.264318 
     10 O          -0.691132    0.351154   -3.657751 O.2       1 <1>        -0.259224 
     11 O          -4.185317   -0.456086   -0.411718 O.3       1 <1>        -0.388883 
     12 O          -2.516014   -1.702821   -2.151400 O.3       1 <1>        -0.385204 
     13 C           0.249575    1.099538    1.898322 C.3       1 <1>         0.055343 
     14 C           2.244152    0.276524    2.656736 C.3       1 <1>         0.125427 
     15 C           0.945043    0.270101    0.671887 C.3       1 <1>         0.203776 
     16 C           1.647623    1.704389    2.057697 C.3       1 <1>        -0.006032 
     17 C           0.237066    1.010174    3.520655 C.3       1 <1>         0.094247 
     18 C           1.724364    0.881095    3.990961 C.3       1 <1>         0.112843 
     19 C          -1.002825    1.970114    1.543305 C.3       1 <1>        -0.051996 
     20 C           1.505744   -1.165119    2.859895 C.3       1 <1>         0.088713 
     21 C           0.848085    1.125631   -0.652003 C.3       1 <1>         0.111936 
     22 C           1.700157   -1.861651   -0.610983 C.3       1 <1>         0.137428 
     23 C           0.857676   -2.399824   -1.851871 C.3       1 <1>         0.017415 
     24 C           2.478768   -1.103424   -1.640040 C.ar      1 <1>         0.130474 
     25 C           3.114343   -2.359707   -0.131744 C.3       1 <1>         0.096355 
     26 C           1.582923   -1.389291   -2.735484 C.ar      1 <1>         0.069090 
     27 C           3.618166   -0.586537   -1.312495 C.ar      1 <1>         0.483618 
     28 C           1.831448   -0.723994   -3.826528 C.ar      1 <1>         0.328328 
     29 C          -0.345102   -2.549564    2.190767 C.2       1 <1>         0.269223 
     30 C          -0.364559    1.037641   -2.705434 C.2       1 <1>         0.293972 
     31 C          -1.701765   -2.673909    1.500888 C.3       1 <1>         0.065326 
     32 C          -2.321355   -1.349050    0.951260 C.3       1 <1>        -0.008772 
     33 C          -0.428458    2.540101   -2.878521 C.ar      1 <1>         0.046477 
     34 C          -1.613219   -3.713070    0.395307 C.2       1 <1>        -0.072863 
     35 C          -3.572330   -1.657350    0.086858 C.3       1 <1>         0.085618 
     36 C          -3.175376   -2.498634   -1.152968 C.3       1 <1>         0.099220 
     37 C          -2.251683   -3.629011   -0.774816 C.2       1 <1>        -0.056630 
     38 C           0.488871    3.223042   -3.819316 C.ar      1 <1>        -0.048875 
     39 C          -1.398078    3.302254   -2.153554 C.ar      1 <1>        -0.048875 
     40 C           0.416010    4.617440   -3.983144 C.ar      1 <1>        -0.061020 
     41 C          -1.456206    4.773601   -2.318311 C.ar      1 <1>        -0.061020 
     42 C          -0.572660    5.408202   -3.207236 C.ar      1 <1>        -0.061719 
     43 H           1.534440    2.689783    2.571286 H         1 <1>         0.030237 
     44 H           2.131646    2.270225    1.216788 H         1 <1>         0.030237 
     45 H          -0.094430    1.960693    3.980665 H         1 <1>         0.062719 
     46 H           2.298620    1.781242    4.316665 H         1 <1>         0.064898 
     47 H          -1.831333    1.771833    2.242102 H         1 <1>         0.023759 
     48 H          -1.442586    1.764042    0.560026 H         1 <1>         0.023759 
     49 H          -0.752894    3.038450    1.627142 H         1 <1>         0.023759 
     50 H           1.458637   -1.591057    3.870356 H         1 <1>         0.059554 
     51 H           2.147897   -1.873458    2.353813 H         1 <1>         0.059554 
     52 H           1.842952    1.288844   -1.095095 H         1 <1>         0.061999 
     53 H           0.470662    2.144565   -0.481300 H         1 <1>         0.061999 
     54 H          -0.217025   -2.214339   -1.750996 H         1 <1>         0.034821 
     55 H           1.076107   -3.451093   -2.100247 H         1 <1>         0.034821 
     56 H          -1.525110    0.114850    3.956088 H         1 <1>         0.209917 
     57 H           2.816823   -0.151200    5.383006 H         1 <1>         0.210015 
     58 H           3.095745   -2.939204    0.793943 H         1 <1>         0.060018 
     59 H           3.541477   -3.094405   -0.846064 H         1 <1>         0.060018 
     60 H           1.426756   -0.602506   -4.830786 H         1 <1>         0.176399 
     61 H          -2.390772   -3.081286    2.258103 H         1 <1>         0.044556 
     62 H          -2.607563   -0.702147    1.795202 H         1 <1>         0.030150 
     63 H          -1.612179   -0.802386    0.315908 H         1 <1>         0.030150 
     64 H          -0.986285   -4.593322    0.570391 H         1 <1>         0.057748 
     65 H          -4.290400   -2.231704    0.697027 H         1 <1>         0.062248 
     66 H          -4.095871   -2.923022   -1.594947 H         1 <1>         0.066346 
     67 H          -2.105533   -4.416558   -1.520290 H         1 <1>         0.059537 
     68 H           1.213716    2.650579   -4.384495 H         1 <1>         0.062527 
     69 H          -2.098666    2.809977   -1.490230 H         1 <1>         0.062527 
     70 H          -4.484798    0.130798    0.274183 H         1 <1>         0.209902 
     71 H           1.082750    5.124150   -4.677178 H         1 <1>         0.061778 
     72 H          -2.179005    5.354276   -1.753251 H         1 <1>         0.061778 
     73 H          -3.036302   -0.941590   -2.391254 H         1 <1>         0.210319 
     74 H          -0.611663    6.490171   -3.325992 H         1 <1>         0.061759 
@<TRIPOS>BOND
     1   14    1 1    
     2    1   15 1    
     3   15    2 1    
     4    2   22 1    
     5   17    3 1    
     6    3   56 1    
     7   18    4 1    
     8    4   57 1    
     9    5   20 1    
    10   29    5 1    
    11   21    6 1    
    12    6   30 1    
    13   25    7 1    
    14    7   27 1    
    15   27    8 1    
    16    8   28 1    
    17   29    9 2    
    18   30   10 2    
    19   35   11 1    
    20   11   70 1    
    21   36   12 1    
    22   12   73 1    
    23   13   15 1    
    24   16   13 1    
    25   17   13 1    
    26   13   19 1    
    27   14   16 1    
    28   14   18 1    
    29   20   14 1    
    30   15   21 1    
    31   16   43 1    
    32   16   44 1    
    33   18   17 1    
    34   17   45 1    
    35   18   46 1    
    36   19   47 1    
    37   19   48 1    
    38   19   49 1    
    39   20   50 1    
    40   20   51 1    
    41   21   52 1    
    42   21   53 1    
    43   22   23 1    
    44   22   24 1    
    45   22   25 1    
    46   23   26 1    
    47   23   54 1    
    48   23   55 1    
    49   24   26 1    
    50   24   27 2    
    51   25   58 1    
    52   25   59 1    
    53   26   28 2    
    54   28   60 1    
    55   31   29 1    
    56   30   33 1    
    57   32   31 1    
    58   31   34 1    
    59   31   61 1    
    60   35   32 1    
    61   32   62 1    
    62   32   63 1    
    63   33   38 1    
    64   33   39 2    
    65   34   37 2    
    66   34   64 1    
    67   35   36 1    
    68   35   65 1    
    69   36   37 1    
    70   36   66 1    
    71   37   67 1    
    72   38   40 2    
    73   38   68 1    
    74   39   41 1    
    75   39   69 1    
    76   40   42 1    
    77   40   71 1    
    78   41   42 2    
    79   41   72 1    
    80   42   74 1    
@<TRIPOS>SUBSTRUCTURE
     1 ****        1 TEMP              0 ****  ****    0 ROOT 
@<TRIPOS>NORMAL
@<TRIPOS>FF_PBC
FORCE_FIELD_SETUP_FEATURE Force Field Setup information
v1.0  0 0.000000 0.000000 0.000000 0.000000 0.000000 0.000000 NONE 0 0 0 0 1 0 0 0 0 0 0 0 0
