@<TRIPOS>MOLECULE
MOL012947
  141   149     1     1     0
SMALL
GASTEIGER


@<TRIPOS>ATOM
      1 C           3.093116    9.448660    4.287330 C.2       1 <1>        -0.077208 
      2 C           2.276254   10.039676    5.417932 C.3       1 <1>        -0.043969 
      3 C           4.459340    8.937851    4.696270 C.3       1 <1>        -0.043969 
      4 C           2.615003    9.402558    3.031923 C.2       1 <1>        -0.056719 
      5 C           3.359439    8.847136    1.835293 C.3       1 <1>         0.082911 
      6 O           3.648652    7.448270    2.058406 O.3       1 <1>        -0.340889 
      7 C           2.640093    9.121088    0.479128 C.3       1 <1>         0.006275 
      8 C           1.286357    8.351836    0.309679 C.3       1 <1>         0.073921 
      9 C           1.359253    7.043306    1.170295 C.3       1 <1>         0.045172 
     10 C           2.815045    6.562362    1.296529 C.3       1 <1>         0.176956 
     11 C           0.994556    8.211864   -1.212250 C.3       1 <1>        -0.035536 
     12 O           0.253035    9.198555    0.852253 O.3       1 <1>        -0.388286 
     13 C           0.655839    5.680491    0.857114 C.3       1 <1>        -0.022254 
     14 C           1.813941    4.649659    0.644817 C.3       1 <1>         0.008081 
     15 C           2.726062    5.111906    1.819550 C.3       1 <1>         0.010330 
     16 C          -0.449818    5.466517   -0.195353 C.3       1 <1>        -0.048816 
     17 C          -1.097003    4.060782    0.038251 C.3       1 <1>        -0.048911 
     18 C          -0.222771    3.017488    0.837582 C.3       1 <1>        -0.029356 
     19 C           1.309457    3.140050    0.484482 C.3       1 <1>        -0.020557 
     20 C          -0.881181    1.567331    0.947337 C.3       1 <1>        -0.025246 
     21 C           0.138888    0.470895    1.482299 C.3       1 <1>        -0.027836 
     22 C           1.305141    1.163845    2.251906 C.3       1 <1>        -0.048617 
     23 C           2.143593    2.145560    1.379615 C.3       1 <1>        -0.046476 
     24 C          -1.589864    1.093614   -0.366580 C.3       1 <1>        -0.044721 
     25 C          -1.819526   -0.434668   -0.383286 C.3       1 <1>        -0.025470 
     26 C          -0.481482   -1.198970   -0.499872 C.3       1 <1>         0.067174 
     27 C           0.500369   -0.874189    0.691467 C.3       1 <1>        -0.005230 
     28 C           2.760485    5.134521   -0.499143 C.3       1 <1>         0.057503 
     29 O           3.304816    6.373467   -0.032496 O.3       1 <1>        -0.347589 
     30 C           1.447222    2.691877   -1.008906 C.3       1 <1>        -0.058701 
     31 C          -2.053170    1.703910    2.009330 C.3       1 <1>        -0.059019 
     32 C           0.431389   -2.090171    1.689417 C.3       1 <1>        -0.057181 
     33 C           1.976742   -0.917756    0.164435 C.3       1 <1>        -0.057181 
     34 O          -0.899747   -2.591678   -0.531422 O.3       1 <1>        -0.344893 
     35 C          -0.209037   -3.432535   -1.479782 C.3       1 <1>         0.188196 
     36 O          -0.630660   -3.132921   -2.821585 O.3       1 <1>        -0.346051 
     37 C          -2.011908   -3.463150   -3.060339 C.3       1 <1>         0.079203 
     38 C          -2.273835   -4.965185   -2.794235 C.3       1 <1>         0.107307 
     39 C          -1.951084   -5.261479   -1.301111 C.3       1 <1>         0.120590 
     40 C          -0.441052   -4.929201   -1.126111 C.3       1 <1>         0.140966 
     41 O          -3.629932   -5.278490   -3.168321 O.3       1 <1>        -0.386848 
     42 O           0.302485   -5.898204   -1.911905 O.3       1 <1>        -0.337748 
     43 C           1.739412   -5.749842   -1.877874 C.3       1 <1>         0.188651 
     44 O          -2.853993   -4.480369   -0.470988 O.3       1 <1>        -0.340053 
     45 C          -2.789877   -4.754237    0.948343 C.3       1 <1>         0.188437 
     46 O          -3.269548   -6.073129    1.272015 O.3       1 <1>        -0.340520 
     47 C          -4.681741   -6.279619    1.024909 C.3       1 <1>         0.113005 
     48 C          -5.599319   -5.142563    1.565036 C.3       1 <1>         0.111896 
     49 C          -5.044997   -3.720473    1.275993 C.3       1 <1>         0.114061 
     50 C          -3.575382   -3.677926    1.744597 C.3       1 <1>         0.134124 
     51 O           2.157892   -4.697720   -2.760079 O.3       1 <1>        -0.340314 
     52 C           1.789277   -4.931382   -4.135934 C.3       1 <1>         0.114963 
     53 C           2.422900   -6.240379   -4.689515 C.3       1 <1>         0.220746 
     54 C           2.014753   -7.420397   -3.758003 C.3       1 <1>         0.141537 
     55 C           2.394610   -7.093799   -2.293387 C.3       1 <1>         0.136753 
     56 C          -5.016941   -6.684391   -0.432542 C.3       1 <1>         0.073015 
     57 O          -6.347735   -7.233486   -0.483405 O.3       1 <1>        -0.392366 
     58 O          -5.182040   -3.252453   -0.081133 O.3       1 <1>        -0.386401 
     59 O          -5.776875   -5.298888    2.987453 O.3       1 <1>        -0.386488 
     60 O          -3.528095   -3.911433    3.170078 O.3       1 <1>        -0.384104 
     61 C           2.243153   -3.697279   -4.952481 C.3       1 <1>        -0.033420 
     62 O           2.586180   -8.682830   -4.157587 O.3       1 <1>        -0.383620 
     63 O           3.834527   -7.064843   -2.188430 O.3       1 <1>        -0.384004 
     64 O           1.906987   -6.464516   -6.013319 O.3       1 <1>        -0.360779 
     65 O           3.846960   -6.058945   -4.783438 O.3       1 <1>        -0.360779 
     66 H           1.305324   10.441802    5.091348 H         1 <1>         0.027428 
     67 H           2.841553   10.858878    5.887316 H         1 <1>         0.027428 
     68 H           2.085838    9.265390    6.175886 H         1 <1>         0.027428 
     69 H           5.005381    8.410435    3.903017 H         1 <1>         0.027428 
     70 H           4.349860    8.240981    5.540855 H         1 <1>         0.027428 
     71 H           5.074751    9.789419    5.023755 H         1 <1>         0.027428 
     72 H           1.616137    9.798670    2.849464 H         1 <1>         0.059695 
     73 H           4.326607    9.375781    1.808832 H         1 <1>         0.064228 
     74 H           2.466327   10.202545    0.359026 H         1 <1>         0.032111 
     75 H           3.344953    8.819437   -0.312064 H         1 <1>         0.032111 
     76 H           1.102862    7.368211    2.195865 H         1 <1>         0.038356 
     77 H          -0.030669    7.875527   -1.406307 H         1 <1>         0.025733 
     78 H           1.094730    9.200968   -1.685171 H         1 <1>         0.025733 
     79 H           1.700103    7.532146   -1.703685 H         1 <1>         0.025733 
     80 H          -0.613097    8.806578    0.813371 H         1 <1>         0.210163 
     81 H           0.122544    5.484700    1.801679 H         1 <1>         0.031229 
     82 H           3.745008    4.690255    1.844368 H         1 <1>         0.032341 
     83 H           2.274240    5.042279    2.822497 H         1 <1>         0.032341 
     84 H          -1.217098    6.254538   -0.106325 H         1 <1>         0.026833 
     85 H          -0.022690    5.524968   -1.205748 H         1 <1>         0.026833 
     86 H          -1.398181    3.674857   -0.944561 H         1 <1>         0.026837 
     87 H          -2.023976    4.239682    0.602137 H         1 <1>         0.026837 
     88 H          -0.215880    3.359332    1.879819 H         1 <1>         0.031156 
     89 H          -0.409365    0.033439    2.331066 H         1 <1>         0.031210 
     90 H           0.881230    1.746883    3.089874 H         1 <1>         0.026846 
     91 H           1.961157    0.425160    2.739100 H         1 <1>         0.026846 
     92 H           2.757321    2.664074    2.124871 H         1 <1>         0.027088 
     93 H           2.873625    1.604924    0.764426 H         1 <1>         0.027088 
     94 H          -2.574582    1.579717   -0.464840 H         1 <1>         0.027149 
     95 H          -1.053207    1.345176   -1.286362 H         1 <1>         0.027149 
     96 H          -2.448459   -0.688792   -1.253215 H         1 <1>         0.029047 
     97 H          -2.356235   -0.764046    0.510795 H         1 <1>         0.029047 
     98 H          -0.046937   -0.881533   -1.464884 H         1 <1>         0.060224 
     99 H           2.297520    5.257431   -1.485330 H         1 <1>         0.056658 
    100 H           3.638665    4.477816   -0.606328 H         1 <1>         0.056658 
    101 H           1.088350    1.673745   -1.129407 H         1 <1>         0.023534 
    102 H           2.485674    2.666410   -1.363010 H         1 <1>         0.023534 
    103 H           0.870665    3.320931   -1.698888 H         1 <1>         0.023534 
    104 H          -1.668199    1.989272    3.000890 H         1 <1>         0.023525 
    105 H          -2.610108    0.768643    2.158602 H         1 <1>         0.023525 
    106 H          -2.807129    2.452184    1.733980 H         1 <1>         0.023525 
    107 H           1.043605   -1.903760    2.584437 H         1 <1>         0.023587 
    108 H           0.796501   -3.026582    1.241713 H         1 <1>         0.023587 
    109 H          -0.603167   -2.273031    2.020005 H         1 <1>         0.023587 
    110 H           2.228320   -1.886906   -0.279344 H         1 <1>         0.023587 
    111 H           2.174212   -0.179489   -0.615180 H         1 <1>         0.023587 
    112 H           2.712952   -0.779541    0.965191 H         1 <1>         0.023587 
    113 H           0.864911   -3.241871   -1.423699 H         1 <1>         0.093749 
    114 H          -2.224210   -3.246468   -4.118258 H         1 <1>         0.058735 
    115 H          -2.687368   -2.847599   -2.448783 H         1 <1>         0.058735 
    116 H          -1.602292   -5.541264   -3.455492 H         1 <1>         0.064310 
    117 H          -2.102996   -6.335208   -1.113299 H         1 <1>         0.065136 
    118 H          -0.131620   -5.095982   -0.086445 H         1 <1>         0.067487 
    119 H          -3.811748   -6.213294   -3.156007 H         1 <1>         0.209990 
    120 H           2.099682   -5.515804   -0.862258 H         1 <1>         0.093756 
    121 H          -1.768248   -4.676793    1.338411 H         1 <1>         0.093753 
    122 H          -4.923344   -7.183982    1.606414 H         1 <1>         0.064668 
    123 H          -6.605405   -5.226501    1.124348 H         1 <1>         0.064673 
    124 H          -5.633577   -3.012395    1.881988 H         1 <1>         0.064758 
    125 H          -3.175302   -2.680007    1.516864 H         1 <1>         0.067095 
    126 H           0.694361   -5.004465   -4.235751 H         1 <1>         0.064874 
    127 H           0.921472   -7.539532   -3.835843 H         1 <1>         0.067580 
    128 H           2.000722   -7.898048   -1.646773 H         1 <1>         0.067193 
    129 H          -4.289807   -7.443073   -0.769195 H         1 <1>         0.058370 
    130 H          -4.966109   -5.812537   -1.092418 H         1 <1>         0.058370 
    131 H          -6.611631   -7.506461   -1.357736 H         1 <1>         0.209508 
    132 H          -4.542360   -3.630963   -0.677548 H         1 <1>         0.210005 
    133 H          -4.954710   -5.187782    3.460381 H         1 <1>         0.210004 
    134 H          -2.646641   -3.865262    3.529069 H         1 <1>         0.210110 
    135 H           1.989408   -3.816137   -6.016892 H         1 <1>         0.025627 
    136 H           1.741145   -2.796192   -4.568866 H         1 <1>         0.025627 
    137 H           3.328831   -3.554704   -4.859805 H         1 <1>         0.025627 
    138 H           3.525503   -8.712040   -4.008926 H         1 <1>         0.210127 
    139 H           4.148558   -6.869243   -1.312611 H         1 <1>         0.210112 
    140 H           2.240853   -7.272105   -6.389405 H         1 <1>         0.212913 
    141 H           4.298375   -6.799080   -5.170157 H         1 <1>         0.212913 
@<TRIPOS>BOND
     1    1    2 1    
     2    1    3 1    
     3    1    4 2    
     4    2   66 1    
     5    2   67 1    
     6    2   68 1    
     7    3   69 1    
     8    3   70 1    
     9    3   71 1    
    10    4    5 1    
    11    4   72 1    
    12    5    6 1    
    13    5    7 1    
    14    5   73 1    
    15    6   10 1    
    16    7    8 1    
    17    7   74 1    
    18    7   75 1    
    19    8    9 1    
    20    8   11 1    
    21    8   12 1    
    22    9   10 1    
    23    9   13 1    
    24    9   76 1    
    25   10   15 1    
    26   10   29 1    
    27   11   77 1    
    28   11   78 1    
    29   11   79 1    
    30   12   80 1    
    31   13   14 1    
    32   13   16 1    
    33   13   81 1    
    34   14   15 1    
    35   14   19 1    
    36   14   28 1    
    37   15   82 1    
    38   15   83 1    
    39   16   17 1    
    40   16   84 1    
    41   16   85 1    
    42   17   18 1    
    43   17   86 1    
    44   17   87 1    
    45   18   19 1    
    46   18   20 1    
    47   18   88 1    
    48   19   23 1    
    49   19   30 1    
    50   20   21 1    
    51   20   24 1    
    52   20   31 1    
    53   21   22 1    
    54   21   27 1    
    55   21   89 1    
    56   22   23 1    
    57   22   90 1    
    58   22   91 1    
    59   23   92 1    
    60   23   93 1    
    61   24   25 1    
    62   24   94 1    
    63   24   95 1    
    64   25   26 1    
    65   25   96 1    
    66   25   97 1    
    67   26   27 1    
    68   26   34 1    
    69   26   98 1    
    70   27   32 1    
    71   27   33 1    
    72   28   29 1    
    73   28   99 1    
    74   28  100 1    
    75   30  101 1    
    76   30  102 1    
    77   30  103 1    
    78   31  104 1    
    79   31  105 1    
    80   31  106 1    
    81   32  107 1    
    82   32  108 1    
    83   32  109 1    
    84   33  110 1    
    85   33  111 1    
    86   33  112 1    
    87   34   35 1    
    88   35   36 1    
    89   35   40 1    
    90   35  113 1    
    91   36   37 1    
    92   37   38 1    
    93   37  114 1    
    94   37  115 1    
    95   38   39 1    
    96   38   41 1    
    97   38  116 1    
    98   39   40 1    
    99   39   44 1    
   100   39  117 1    
   101   40   42 1    
   102   40  118 1    
   103   41  119 1    
   104   42   43 1    
   105   43   51 1    
   106   43   55 1    
   107   43  120 1    
   108   44   45 1    
   109   45   46 1    
   110   45   50 1    
   111   45  121 1    
   112   46   47 1    
   113   47   48 1    
   114   47   56 1    
   115   47  122 1    
   116   48   49 1    
   117   48   59 1    
   118   48  123 1    
   119   49   50 1    
   120   49   58 1    
   121   49  124 1    
   122   50   60 1    
   123   50  125 1    
   124   51   52 1    
   125   52   53 1    
   126   52   61 1    
   127   52  126 1    
   128   53   54 1    
   129   53   64 1    
   130   53   65 1    
   131   54   55 1    
   132   54   62 1    
   133   54  127 1    
   134   55   63 1    
   135   55  128 1    
   136   56   57 1    
   137   56  129 1    
   138   56  130 1    
   139   57  131 1    
   140   58  132 1    
   141   59  133 1    
   142   60  134 1    
   143   61  135 1    
   144   61  136 1    
   145   61  137 1    
   146   62  138 1    
   147   63  139 1    
   148   64  140 1    
   149   65  141 1    
@<TRIPOS>SUBSTRUCTURE
     1 ****        1 TEMP              0 ****  ****    0 ROOT 
@<TRIPOS>NORMAL
@<TRIPOS>FF_PBC
FORCE_FIELD_SETUP_FEATURE Force Field Setup information
v1.0  0 0.000000 0.000000 0.000000 0.000000 0.000000 0.000000 NONE 0 0 0 0 1 0 0 0 0 0 0 0 0
