@<TRIPOS>MOLECULE
MOL004649
   29    30     1     1     0
SMALL
GASTEIGER


@<TRIPOS>ATOM
      1 C           0.310830    0.107424   -0.412891 C.3       1 <1>         0.161126 
      2 N           1.495660    0.102169    0.450668 N.am      1 <1>        -0.232533 
      3 O          -0.508628    1.269213   -0.183274 O.3       1 <1>        -0.347449 
      4 C          -0.607703   -1.111836   -0.128478 C.3       1 <1>         0.126592 
      5 C           2.548672   -0.675817    0.094877 C.2       1 <1>         0.314611 
      6 C           1.495016    0.837805    1.591373 C.2       1 <1>         0.008248 
      7 C          -1.886060    0.911790   -0.385684 C.3       1 <1>         0.112377 
      8 C          -1.932108   -0.456887    0.331689 C.3       1 <1>         0.113317 
      9 O          -0.805011   -1.887304   -1.327656 O.3       1 <1>        -0.384867 
     10 N           3.645157   -0.707059    0.877742 N.am      1 <1>        -0.236133 
     11 O           2.517628   -1.350209   -0.921501 O.2       1 <1>        -0.251786 
     12 C           2.564319    0.829654    2.393129 C.2       1 <1>         0.014769 
     13 C          -2.292373    0.843817   -1.884315 C.3       1 <1>         0.072993 
     14 O          -3.075685   -1.268115    0.001047 O.3       1 <1>        -0.386430 
     15 C           3.719876    0.008721    2.012947 C.2       1 <1>         0.245462 
     16 O          -2.241612    2.171601   -2.441440 O.3       1 <1>        -0.392366 
     17 O           4.706070   -0.004963    2.730759 O.2       1 <1>        -0.270338 
     18 H           0.599906    0.123951   -1.477491 H         1 <1>         0.084075 
     19 H          -0.185521   -1.757640    0.661240 H         1 <1>         0.066321 
     20 H           0.643593    1.449832    1.894343 H         1 <1>         0.078713 
     21 H          -2.539811    1.649216    0.108185 H         1 <1>         0.064645 
     22 H          -1.874764   -0.282254    1.421937 H         1 <1>         0.064730 
     23 H          -1.459409   -2.568350   -1.199376 H         1 <1>         0.210077 
     24 H           4.423400   -1.276419    0.611526 H         1 <1>         0.159387 
     25 H           2.598510    1.411302    3.314733 H         1 <1>         0.068206 
     26 H          -3.321871    0.455589   -1.959915 H         1 <1>         0.058370 
     27 H          -1.629349    0.174584   -2.452872 H         1 <1>         0.058370 
     28 H          -3.897422   -0.870396    0.272483 H         1 <1>         0.210005 
     29 H          -2.486451    2.205239   -3.361773 H         1 <1>         0.209508 
@<TRIPOS>BOND
     1    1    2 1    
     2    1    3 1    
     3    1    4 1    
     4    1   18 1    
     5    2    5 1    
     6    2    6 1    
     7    3    7 1    
     8    4    8 1    
     9    4    9 1    
    10    4   19 1    
    11    5   10 1    
    12    5   11 2    
    13    6   12 2    
    14    6   20 1    
    15    7    8 1    
    16    7   13 1    
    17    7   21 1    
    18    8   14 1    
    19    8   22 1    
    20    9   23 1    
    21   10   15 1    
    22   10   24 1    
    23   12   15 1    
    24   12   25 1    
    25   13   16 1    
    26   13   26 1    
    27   13   27 1    
    28   14   28 1    
    29   15   17 2    
    30   16   29 1    
@<TRIPOS>SUBSTRUCTURE
     1 ****        1 TEMP              0 ****  ****    0 ROOT 
@<TRIPOS>NORMAL
@<TRIPOS>FF_PBC
FORCE_FIELD_SETUP_FEATURE Force Field Setup information
v1.0  0 0.000000 0.000000 0.000000 0.000000 0.000000 0.000000 NONE 0 0 0 0 1 0 0 0 0 0 0 0 0
