@<TRIPOS>MOLECULE
MOL004849
   47    49     1     1     0
SMALL
GASTEIGER


@<TRIPOS>ATOM
      1 C          -1.415278    0.773742    0.478174 C.2       1 <1>         0.299469 
      2 C          -0.197045    1.561443    0.806305 C.2       1 <1>         0.057145 
      3 C           1.008382    1.050536    0.550390 C.2       1 <1>        -0.036075 
      4 C           1.113174   -0.343125   -0.023448 C.ar      1 <1>         0.036732 
      5 C          -0.125327   -1.020249   -0.451593 C.ar      1 <1>         0.102493 
      6 O          -1.353778   -0.381226   -0.218898 O.3       1 <1>        -0.272866 
      7 C          -0.054665   -2.294126   -1.079019 C.ar      1 <1>         0.022948 
      8 C           1.274173   -2.978965   -1.178598 C.ar      1 <1>         0.081513 
      9 C           2.433271   -2.321728   -0.747838 C.ar      1 <1>        -0.000880 
     10 C           2.349004   -0.984317   -0.131347 C.ar      1 <1>         0.087892 
     11 O          -2.505531    1.168619    0.860043 O.2       1 <1>        -0.258804 
     12 O           3.496066   -0.380633    0.369858 O.3       1 <1>        -0.347158 
     13 C           3.652438   -0.757738    1.745069 C.3       1 <1>         0.043053 
     14 O           1.389088   -4.269067   -1.708203 O.3       1 <1>        -0.359366 
     15 C          -1.358350   -2.880866   -1.672350 C.3       1 <1>         0.012760 
     16 C          -1.807335   -1.856493   -2.699291 C.2       1 <1>        -0.081008 
     17 C          -0.985166   -1.318247   -3.603849 C.2       1 <1>        -0.101810 
     18 C          -2.460365   -3.110873   -0.595594 C.3       1 <1>        -0.052145 
     19 C          -1.153558   -4.199137   -2.474738 C.3       1 <1>        -0.052145 
     20 C          -0.297138    2.931390    1.439642 C.ar      1 <1>         0.017745 
     21 C          -1.218148    3.949025    0.865392 C.ar      1 <1>         0.082884 
     22 C          -1.312676    5.215662    1.463712 C.ar      1 <1>        -0.001570 
     23 C          -0.511285    5.550271    2.665668 C.ar      1 <1>         0.075055 
     24 C           0.373119    4.590922    3.201512 C.ar      1 <1>        -0.031201 
     25 C           0.486668    3.258233    2.564425 C.ar      1 <1>        -0.048954 
     26 O          -0.651665    6.815544    3.243569 O.3       1 <1>        -0.359750 
     27 O          -1.970911    3.630444   -0.262802 O.3       1 <1>        -0.359141 
     28 H           1.915993    1.618236    0.747902 H         1 <1>         0.063295 
     29 H           3.404517   -2.788585   -0.860382 H         1 <1>         0.066939 
     30 H           3.802140   -1.848349    1.815295 H         1 <1>         0.052870 
     31 H           4.538079   -0.263350    2.162306 H         1 <1>         0.052870 
     32 H           2.775105   -0.455290    2.339933 H         1 <1>         0.052870 
     33 H           2.174204   -4.746176   -1.458039 H         1 <1>         0.217328 
     34 H          -2.856757   -1.547692   -2.701157 H         1 <1>         0.057494 
     35 H          -1.357856   -0.592270   -4.329873 H         1 <1>         0.053201 
     36 H           0.074262   -1.579759   -3.668044 H         1 <1>         0.053201 
     37 H          -2.082293   -3.751146    0.213842 H         1 <1>         0.024113 
     38 H          -2.831925   -2.181038   -0.144994 H         1 <1>         0.024113 
     39 H          -3.330905   -3.606164   -1.051093 H         1 <1>         0.024113 
     40 H          -0.879565   -5.020923   -1.796597 H         1 <1>         0.024113 
     41 H          -0.368077   -4.079048   -3.238616 H         1 <1>         0.024113 
     42 H          -2.076692   -4.489113   -2.999080 H         1 <1>         0.024113 
     43 H          -1.981654    5.968626    1.050047 H         1 <1>         0.066920 
     44 H           0.967698    4.816557    4.083161 H         1 <1>         0.064340 
     45 H           1.180101    2.538371    2.989397 H         1 <1>         0.062523 
     46 H          -0.096519    6.951927    4.001248 H         1 <1>         0.217315 
     47 H          -1.951532    4.306812   -0.934191 H         1 <1>         0.217339 
@<TRIPOS>BOND
     1    1    2 1    
     2    1    6 1    
     3    1   11 2    
     4    2    3 2    
     5    2   20 1    
     6    3    4 1    
     7    3   28 1    
     8    4    5 1    
     9    4   10 2    
    10    5    6 1    
    11    5    7 2    
    12    7    8 1    
    13    7   15 1    
    14    8    9 2    
    15    8   14 1    
    16    9   10 1    
    17    9   29 1    
    18   10   12 1    
    19   12   13 1    
    20   13   30 1    
    21   13   31 1    
    22   13   32 1    
    23   14   33 1    
    24   15   16 1    
    25   15   18 1    
    26   15   19 1    
    27   16   17 2    
    28   16   34 1    
    29   17   35 1    
    30   17   36 1    
    31   18   37 1    
    32   18   38 1    
    33   18   39 1    
    34   19   40 1    
    35   19   41 1    
    36   19   42 1    
    37   20   21 1    
    38   20   25 2    
    39   21   22 2    
    40   21   27 1    
    41   22   23 1    
    42   22   43 1    
    43   23   24 2    
    44   23   26 1    
    45   24   25 1    
    46   24   44 1    
    47   25   45 1    
    48   26   46 1    
    49   27   47 1    
@<TRIPOS>SUBSTRUCTURE
     1 ****        1 TEMP              0 ****  ****    0 ROOT 
@<TRIPOS>NORMAL
@<TRIPOS>FF_PBC
FORCE_FIELD_SETUP_FEATURE Force Field Setup information
v1.0  0 0.000000 0.000000 0.000000 0.000000 0.000000 0.000000 NONE 0 0 0 0 1 0 0 0 0 0 0 0 0
