@<TRIPOS>MOLECULE
MOL004685
   26    25     1     1     0
SMALL
GASTEIGER


@<TRIPOS>ATOM
      1 C          -4.178787   -2.132307   -0.000128 C.3       1 <1>        -0.046422 
      2 C          -3.732981   -0.691161   -0.001274 C.2       1 <1>        -0.083820 
      3 C          -2.436317   -0.352659    0.000920 C.2       1 <1>        -0.023406 
      4 C          -1.964317    1.050706   -0.000042 C.2       1 <1>         0.155789 
      5 C          -0.510817    1.467357    0.000277 C.3       1 <1>         0.009857 
      6 C           0.536052    0.320093    0.000349 C.3       1 <1>        -0.046066 
      7 C           1.986376    0.877761   -0.000037 C.3       1 <1>        -0.052912 
      8 C           3.033626   -0.269230    0.000093 C.3       1 <1>        -0.055900 
      9 C           4.480807    0.288616   -0.000113 C.3       1 <1>        -0.065276 
     10 O          -2.795500    1.945010   -0.001200 O.2       1 <1>        -0.292692 
     11 H          -5.277614   -2.202051    0.005584 H         1 <1>         0.027181 
     12 H          -3.799389   -2.641880   -0.898932 H         1 <1>         0.027181 
     13 H          -3.790130   -2.644058    0.893488 H         1 <1>         0.027181 
     14 H          -4.496933    0.088317   -0.004137 H         1 <1>         0.057031 
     15 H          -1.716204   -1.168387    0.003419 H         1 <1>         0.064901 
     16 H          -0.350505    2.094343   -0.891273 H         1 <1>         0.034488 
     17 H          -0.350759    2.094461    0.891786 H         1 <1>         0.034488 
     18 H           0.395095   -0.304378    0.897933 H         1 <1>         0.026937 
     19 H           0.394649   -0.304860   -0.896835 H         1 <1>         0.026937 
     20 H           2.137332    1.505925   -0.893503 H         1 <1>         0.026531 
     21 H           2.137583    1.506373    0.893074 H         1 <1>         0.026531 
     22 H           2.891313   -0.899743    0.893705 H         1 <1>         0.026265 
     23 H           2.891159   -0.900064   -0.893268 H         1 <1>         0.026265 
     24 H           5.206394   -0.540223   -0.000032 H         1 <1>         0.022978 
     25 H           4.654862    0.905974   -0.895239 H         1 <1>         0.022978 
     26 H           4.655000    0.906264    0.894788 H         1 <1>         0.022978 
@<TRIPOS>BOND
     1    1    2 1    
     2    1   11 1    
     3    1   12 1    
     4    1   13 1    
     5    2    3 2    
     6    2   14 1    
     7    3    4 1    
     8    3   15 1    
     9    4    5 1    
    10    4   10 2    
    11    5    6 1    
    12    5   16 1    
    13    5   17 1    
    14    6    7 1    
    15    6   18 1    
    16    6   19 1    
    17    7    8 1    
    18    7   20 1    
    19    7   21 1    
    20    8    9 1    
    21    8   22 1    
    22    8   23 1    
    23    9   24 1    
    24    9   25 1    
    25    9   26 1    
@<TRIPOS>SUBSTRUCTURE
     1 ****        1 TEMP              0 ****  ****    0 ROOT 
@<TRIPOS>NORMAL
@<TRIPOS>FF_PBC
FORCE_FIELD_SETUP_FEATURE Force Field Setup information
v1.0  0 0.000000 0.000000 0.000000 0.000000 0.000000 0.000000 NONE 0 0 0 0 1 0 0 0 0 0 0 0 0
