@<TRIPOS>MOLECULE
MOL005306
   22    21     1     1     0
SMALL
GASTEIGER


@<TRIPOS>ATOM
      1 C          -0.035134   -0.432981    0.074846 C.3       1 <1>         0.156309 
      2 O           1.150630    0.389007    0.027656 O.3       1 <1>        -0.351867 
      3 O          -1.072889    0.569353    0.027675 O.3       1 <1>        -0.351867 
      4 C          -0.116050   -1.430571   -1.111591 C.3       1 <1>        -0.013572 
      5 C           2.400750   -0.307723    0.202303 C.3       1 <1>         0.047816 
      6 C          -2.418940    0.083233    0.202130 C.3       1 <1>         0.047816 
      7 C           3.510933    0.762274    0.333462 C.3       1 <1>        -0.041468 
      8 C          -3.342158    1.318119    0.333519 C.3       1 <1>        -0.041468 
      9 H          -0.078297   -0.965202    1.040734 H         1 <1>         0.090642 
     10 H          -1.047064   -2.013207   -1.083564 H         1 <1>         0.027820 
     11 H           0.708918   -2.155628   -1.083604 H         1 <1>         0.027820 
     12 H          -0.070630   -0.870371   -2.057410 H         1 <1>         0.027820 
     13 H           2.392505   -0.926088    1.115313 H         1 <1>         0.055790 
     14 H           2.639199   -0.941875   -0.665469 H         1 <1>         0.055790 
     15 H          -2.756449   -0.504011   -0.665802 H         1 <1>         0.055790 
     16 H          -2.510565   -0.528608    1.114998 H         1 <1>         0.055790 
     17 H           4.495327    0.287117    0.469737 H         1 <1>         0.025173 
     18 H           3.539264    1.387004   -0.573014 H         1 <1>         0.025173 
     19 H           3.305244    1.409395    1.200405 H         1 <1>         0.025173 
     20 H          -4.390306    1.007833    0.469634 H         1 <1>         0.025173 
     21 H          -3.034930    1.923431    1.200646 H         1 <1>         0.025173 
     22 H          -3.269356    1.939496   -0.572802 H         1 <1>         0.025173 
@<TRIPOS>BOND
     1    1    2 1    
     2    1    3 1    
     3    1    4 1    
     4    1    9 1    
     5    2    5 1    
     6    3    6 1    
     7    4   10 1    
     8    4   11 1    
     9    4   12 1    
    10    5    7 1    
    11    5   13 1    
    12    5   14 1    
    13    6    8 1    
    14    6   15 1    
    15    6   16 1    
    16    7   17 1    
    17    7   18 1    
    18    7   19 1    
    19    8   20 1    
    20    8   21 1    
    21    8   22 1    
@<TRIPOS>SUBSTRUCTURE
     1 ****        1 TEMP              0 ****  ****    0 ROOT 
@<TRIPOS>NORMAL
@<TRIPOS>FF_PBC
FORCE_FIELD_SETUP_FEATURE Force Field Setup information
v1.0  0 0.000000 0.000000 0.000000 0.000000 0.000000 0.000000 NONE 0 0 0 0 1 0 0 0 0 0 0 0 0
