@<TRIPOS>MOLECULE
MOL012940
   48    54     1     1     0
SMALL
GASTEIGER


@<TRIPOS>ATOM
      1 C          -2.377390    1.103149    1.925665 C.3       1 <1>        -0.051931 
      2 C          -2.917358   -0.289167    1.544920 C.3       1 <1>        -0.046030 
      3 C          -1.764988   -1.344072    1.608579 C.3       1 <1>        -0.011952 
      4 C          -0.349897   -0.691015    1.499496 C.3       1 <1>         0.016007 
      5 C          -0.299907    0.476576    0.458777 C.3       1 <1>         0.003946 
      6 C          -1.372956    1.557183    0.834436 C.3       1 <1>        -0.044846 
      7 C           0.427079   -1.698339    0.641220 C.3       1 <1>         0.124659 
      8 C           1.590489   -0.979837   -0.067329 C.3       1 <1>        -0.002866 
      9 C           0.673167    0.295357   -0.686557 C.3       1 <1>        -0.007334 
     10 C           1.153587    1.243857    0.366721 C.3       1 <1>         0.031912 
     11 C           0.533981    1.803050   -1.486936 C.3       1 <1>        -0.024558 
     12 C           1.832812    2.143004   -2.129306 C.2       1 <1>        -0.065883 
     13 C           2.777616    1.074745   -1.770715 C.3       1 <1>         0.038909 
     14 C           2.602413    1.241390   -0.253639 C.2       1 <1>         0.144545 
     15 C           2.093605    3.212976   -2.890051 C.2       1 <1>        -0.098764 
     16 O           3.590094    1.356349    0.455309 O.2       1 <1>        -0.296444 
     17 C           0.473739   -0.296471   -2.071645 C.3       1 <1>        -0.017104 
     18 C           2.021629   -0.117872   -2.477240 C.3       1 <1>        -0.034949 
     19 C          -0.618024   -0.447810   -0.872107 C.3       1 <1>         0.023046 
     20 N          -0.588564   -1.868199   -0.404999 N.3       1 <1>        -0.270529 
     21 C          -1.779225   -2.282997    0.366725 C.3       1 <1>         0.007553 
     22 C          -1.872044   -2.160948    2.931903 C.3       1 <1>        -0.057985 
     23 O           0.780337   -2.902282    1.338238 O.3       1 <1>        -0.374144 
     24 H          -3.204725    1.830572    1.992838 H         1 <1>         0.026564 
     25 H          -1.892553    1.055240    2.914845 H         1 <1>         0.026564 
     26 H          -3.744196   -0.564536    2.219555 H         1 <1>         0.027102 
     27 H          -3.354006   -0.188765    0.539527 H         1 <1>         0.027102 
     28 H           0.110581   -0.468254    2.474577 H         1 <1>         0.035378 
     29 H          -1.925248    1.851752   -0.072078 H         1 <1>         0.027140 
     30 H          -0.888252    2.464878    1.230791 H         1 <1>         0.027140 
     31 H           2.335272   -0.884202    0.744374 H         1 <1>         0.031215 
     32 H           1.918351   -1.826289   -0.683988 H         1 <1>         0.031215 
     33 H           1.377198    1.123783    1.438057 H         1 <1>         0.038915 
     34 H           0.275078    2.758087   -0.965767 H         1 <1>         0.031576 
     35 H          -0.261173    1.919635   -2.247481 H         1 <1>         0.031576 
     36 H           3.808360    1.236187   -2.125607 H         1 <1>         0.042272 
     37 H           3.083807    3.369231   -3.316268 H         1 <1>         0.053460 
     38 H           1.317248    3.948619   -3.097108 H         1 <1>         0.053460 
     39 H          -0.190376   -0.093011   -2.935424 H         1 <1>         0.032199 
     40 H           2.651172   -1.018294   -2.484842 H         1 <1>         0.027835 
     41 H           2.009258    0.132207   -3.553890 H         1 <1>         0.027835 
     42 H          -1.648493   -0.261509   -1.246767 H         1 <1>         0.047198 
     43 H          -2.695187   -2.241335   -0.241811 H         1 <1>         0.043291 
     44 H          -1.642704   -3.339522    0.649081 H         1 <1>         0.043291 
     45 H          -1.038784   -2.869713    3.044209 H         1 <1>         0.023557 
     46 H          -1.860296   -1.482082    3.798339 H         1 <1>         0.023557 
     47 H          -2.811866   -2.734121    2.949476 H         1 <1>         0.023557 
     48 H           1.096538   -3.569685    0.740196 H         1 <1>         0.211744 
@<TRIPOS>BOND
     1    1    2 1    
     2    1    6 1    
     3    1   24 1    
     4    1   25 1    
     5    2    3 1    
     6    2   26 1    
     7    2   27 1    
     8    3    4 1    
     9    3   21 1    
    10    3   22 1    
    11    4    5 1    
    12    4    7 1    
    13    4   28 1    
    14    5    6 1    
    15    5   10 1    
    16    5   19 1    
    17    6   29 1    
    18    6   30 1    
    19    7    8 1    
    20    7   20 1    
    21    7   23 1    
    22    8    9 1    
    23    8   31 1    
    24    8   32 1    
    25    9   10 1    
    26    9   11 1    
    27    9   17 1    
    28   10   14 1    
    29   10   33 1    
    30   11   12 1    
    31   11   34 1    
    32   11   35 1    
    33   12   13 1    
    34   12   15 2    
    35   13   14 1    
    36   13   18 1    
    37   13   36 1    
    38   14   16 2    
    39   15   37 1    
    40   15   38 1    
    41   17   18 1    
    42   17   19 1    
    43   17   39 1    
    44   18   40 1    
    45   18   41 1    
    46   19   20 1    
    47   19   42 1    
    48   20   21 1    
    49   21   43 1    
    50   21   44 1    
    51   22   45 1    
    52   22   46 1    
    53   22   47 1    
    54   23   48 1    
@<TRIPOS>SUBSTRUCTURE
     1 ****        1 TEMP              0 ****  ****    0 ROOT 
@<TRIPOS>NORMAL
@<TRIPOS>FF_PBC
FORCE_FIELD_SETUP_FEATURE Force Field Setup information
v1.0  0 0.000000 0.000000 0.000000 0.000000 0.000000 0.000000 NONE 0 0 0 0 1 0 0 0 0 0 0 0 0
