@<TRIPOS>MOLECULE
MOL000127
   27    26     1     1     0
SMALL
GASTEIGER


@<TRIPOS>ATOM
      1 C           1.186209   -2.113578    0.000039 C.2       1 <1>        -0.069316 
      2 C          -0.017850   -1.184600    0.000060 C.3       1 <1>        -0.028174 
      3 C           1.036610   -3.447936   -0.000082 C.2       1 <1>        -0.023455 
      4 C           2.589280   -1.536817    0.000227 C.3       1 <1>        -0.043388 
      5 C           0.201352    0.353685   -0.000054 C.3       1 <1>        -0.030837 
      6 C          -0.244333   -4.181520   -0.000203 C.2       1 <1>         0.143052 
      7 C          -1.106145    1.113744    0.000018 C.2       1 <1>        -0.084989 
      8 O          -0.238139   -5.401733   -0.000288 O.2       1 <1>        -0.296321 
      9 C          -1.188074    2.453284    0.000014 C.2       1 <1>        -0.079608 
     10 C          -2.544884    3.126281    0.000063 C.3       1 <1>        -0.044049 
     11 C           0.042891    3.336461   -0.000069 C.3       1 <1>        -0.044049 
     12 H          -0.615684   -1.426075   -0.893950 H         1 <1>         0.031296 
     13 H          -0.615588   -1.426003    0.894153 H         1 <1>         0.031296 
     14 H           1.929670   -4.074322   -0.000065 H         1 <1>         0.064887 
     15 H           2.664452   -0.443498   -0.000996 H         1 <1>         0.027446 
     16 H           3.119796   -1.901302    0.893073 H         1 <1>         0.027446 
     17 H           3.120937   -1.903237   -0.891151 H         1 <1>         0.027446 
     18 H           0.765099    0.640719    0.901542 H         1 <1>         0.031044 
     19 H           0.764809    0.640591   -0.901869 H         1 <1>         0.031044 
     20 H          -1.212398   -3.683773   -0.000208 H         1 <1>         0.107513 
     21 H          -2.037270    0.544831    0.000048 H         1 <1>         0.057155 
     22 H          -2.496713    4.224962    0.001475 H         1 <1>         0.027427 
     23 H          -3.103814    2.812285   -0.894533 H         1 <1>         0.027427 
     24 H          -3.104956    2.810140    0.893191 H         1 <1>         0.027427 
     25 H          -0.190816    4.410943   -0.000521 H         1 <1>         0.027427 
     26 H           0.647571    3.128486    0.894936 H         1 <1>         0.027427 
     27 H           0.647987    3.127885   -0.894649 H         1 <1>         0.027427 
@<TRIPOS>BOND
     1    1    2 1    
     2    1    3 2    
     3    1    4 1    
     4    2    5 1    
     5    2   12 1    
     6    2   13 1    
     7    3    6 1    
     8    3   14 1    
     9    4   15 1    
    10    4   16 1    
    11    4   17 1    
    12    5    7 1    
    13    5   18 1    
    14    5   19 1    
    15    6    8 2    
    16    6   20 1    
    17    7    9 2    
    18    7   21 1    
    19    9   10 1    
    20    9   11 1    
    21   10   22 1    
    22   10   23 1    
    23   10   24 1    
    24   11   25 1    
    25   11   26 1    
    26   11   27 1    
@<TRIPOS>SUBSTRUCTURE
     1 ****        1 TEMP              0 ****  ****    0 ROOT 
@<TRIPOS>NORMAL
@<TRIPOS>FF_PBC
FORCE_FIELD_SETUP_FEATURE Force Field Setup information
v1.0  0 0.000000 0.000000 0.000000 0.000000 0.000000 0.000000 NONE 0 0 0 0 1 0 0 0 0 0 0 0 0
