@<TRIPOS>MOLECULE
MOL004073
   99   103     1     1     0
SMALL
GASTEIGER


@<TRIPOS>ATOM
      1 O          -4.421744    1.710671   -1.411200 O.3       1 <1>        -0.345117 
      2 C          -4.356812    3.149234   -1.455012 C.3       1 <1>         0.188218 
      3 C          -4.940414    3.685521   -0.122853 C.3       1 <1>         0.134121 
      4 O          -6.356864    3.418411   -0.062232 O.3       1 <1>        -0.384104 
      5 C          -4.709823    5.213561   -0.019753 C.3       1 <1>         0.114061 
      6 O          -5.152512    5.666754    1.276078 O.3       1 <1>        -0.386401 
      7 C          -3.213201    5.548059   -0.229860 C.3       1 <1>         0.111896 
      8 O          -3.085565    6.985152   -0.215718 O.3       1 <1>        -0.386488 
      9 C          -2.710550    4.921998   -1.559017 C.3       1 <1>         0.113005 
     10 O          -2.958679    3.500560   -1.563379 O.3       1 <1>        -0.340523 
     11 C          -1.189121    5.208300   -1.721893 C.3       1 <1>         0.073015 
     12 O          -0.989082    6.566913   -2.164518 O.3       1 <1>        -0.392366 
     13 C          -4.613461    1.008409   -2.665919 C.3       1 <1>         0.065489 
     14 C          -4.450597   -0.499330   -2.291502 C.3       1 <1>        -0.025405 
     15 C          -3.753002   -1.308298   -3.419226 C.3       1 <1>        -0.041305 
     16 C          -3.669661    1.403153   -3.840957 C.3       1 <1>        -0.004719 
     17 C          -2.351453    0.738451   -3.566973 C.2       1 <1>        -0.064832 
     18 C          -1.302678    1.504589   -3.227526 C.2       1 <1>        -0.083873 
     19 C          -0.041399    0.904754   -2.715558 C.3       1 <1>        -0.031102 
     20 C          -0.455300   -0.293402   -1.814740 C.3       1 <1>        -0.030653 
     21 C           0.834878   -0.839742   -1.116568 C.3       1 <1>        -0.031963 
     22 C           1.167492   -0.016344    0.149599 C.3       1 <1>        -0.049151 
     23 C           2.178475   -0.923966    0.868398 C.3       1 <1>        -0.048906 
     24 C           1.546427   -2.333283    0.771045 C.3       1 <1>        -0.029351 
     25 C           2.588239   -3.422571    1.234736 C.3       1 <1>        -0.022395 
     26 C           3.027554   -3.048360    2.640514 C.2       1 <1>        -0.084547 
     27 C           4.263283   -2.638979    2.981216 C.2       1 <1>        -0.084339 
     28 C           4.655681   -2.259204    4.400849 C.3       1 <1>        -0.020812 
     29 C           5.956008   -2.979188    4.864413 C.3       1 <1>        -0.049381 
     30 C           5.678933   -4.409615    5.388773 C.3       1 <1>        -0.064738 
     31 C           4.734927   -0.703624    4.538409 C.3       1 <1>        -0.040461 
     32 C           4.355802   -0.235655    5.973576 C.3       1 <1>        -0.062133 
     33 C           6.088190   -0.082037    4.096893 C.3       1 <1>        -0.062133 
     34 C           2.034174   -4.871447    1.362083 C.3       1 <1>        -0.058684 
     35 C           0.821498   -2.334599   -0.640941 C.3       1 <1>        -0.025605 
     36 C           1.537182   -3.264539   -1.675516 C.3       1 <1>        -0.059029 
     37 C          -0.671449   -2.740371   -0.490256 C.3       1 <1>        -0.046804 
     38 C          -1.506951   -2.617219   -1.799368 C.3       1 <1>        -0.048644 
     39 C          -1.166308   -1.364991   -2.683711 C.3       1 <1>        -0.028547 
     40 C          -2.287919   -0.779907   -3.648912 C.3       1 <1>        -0.007819 
     41 C          -1.902365   -1.078691   -5.140368 C.3       1 <1>        -0.055578 
     42 H          -4.977969    3.561316   -2.264511 H         1 <1>         0.093750 
     43 H          -4.421691    3.180584    0.709221 H         1 <1>         0.067095 
     44 H          -6.749842    3.742800    0.743343 H         1 <1>         0.210110 
     45 H          -5.298382    5.715399   -0.806436 H         1 <1>         0.064758 
     46 H          -5.023679    6.605234    1.387340 H         1 <1>         0.210005 
     47 H          -2.652714    5.099266    0.610561 H         1 <1>         0.064673 
     48 H          -2.192062    7.280842   -0.375558 H         1 <1>         0.210004 
     49 H          -3.226916    5.377893   -2.417966 H         1 <1>         0.064668 
     50 H          -0.755177    4.536005   -2.473998 H         1 <1>         0.058370 
     51 H          -0.658187    5.038706   -0.768217 H         1 <1>         0.058370 
     52 H          -0.074228    6.776484   -2.343107 H         1 <1>         0.209508 
     53 H          -5.638886    1.204885   -3.018785 H         1 <1>         0.059993 
     54 H          -3.839386   -0.591091   -1.381593 H         1 <1>         0.029048 
     55 H          -5.439650   -0.920767   -2.057825 H         1 <1>         0.029048 
     56 H          -4.378760   -1.179130   -4.317363 H         1 <1>         0.027446 
     57 H          -3.792380   -2.390727   -3.231500 H         1 <1>         0.027446 
     58 H          -3.594494    2.496633   -3.924940 H         1 <1>         0.033519 
     59 H          -4.046751    1.064841   -4.816745 H         1 <1>         0.033519 
     60 H          -1.387824    2.579999   -3.283546 H         1 <1>         0.057190 
     61 H           0.485985    1.673466   -2.122725 H         1 <1>         0.031025 
     62 H           0.596040    0.618116   -3.566034 H         1 <1>         0.031025 
     63 H          -1.195031    0.054449   -1.068333 H         1 <1>         0.030949 
     64 H           1.684153   -0.735024   -1.810814 H         1 <1>         0.030897 
     65 H           1.589729    0.975763   -0.076506 H         1 <1>         0.026828 
     66 H           0.276997    0.104952    0.790021 H         1 <1>         0.026828 
     67 H           2.334534   -0.597071    1.910022 H         1 <1>         0.026837 
     68 H           3.138636   -0.912674    0.330048 H         1 <1>         0.026837 
     69 H           0.762621   -2.360329    1.542364 H         1 <1>         0.031167 
     70 H           3.460359   -3.442682    0.562376 H         1 <1>         0.034310 
     71 H           2.258803   -3.128210    3.407132 H         1 <1>         0.057182 
     72 H           5.020030   -2.551878    2.208032 H         1 <1>         0.057190 
     73 H           3.844124   -2.586498    5.067015 H         1 <1>         0.034534 
     74 H           6.671992   -3.035918    4.031585 H         1 <1>         0.026833 
     75 H           6.438093   -2.437382    5.688913 H         1 <1>         0.026833 
     76 H           6.624544   -4.921340    5.640137 H         1 <1>         0.022995 
     77 H           5.066546   -4.366727    6.306724 H         1 <1>         0.022995 
     78 H           5.145201   -5.007939    4.634584 H         1 <1>         0.022995 
     79 H           3.965005   -0.278902    3.873409 H         1 <1>         0.030110 
     80 H           4.414389    0.859318    6.047402 H         1 <1>         0.023251 
     81 H           3.320783   -0.526183    6.209168 H         1 <1>         0.023251 
     82 H           5.022311   -0.668652    6.734968 H         1 <1>         0.023251 
     83 H           5.972356    1.003330    3.960859 H         1 <1>         0.023251 
     84 H           6.419667   -0.511162    3.142747 H         1 <1>         0.023251 
     85 H           6.880503   -0.237646    4.843026 H         1 <1>         0.023251 
     86 H           2.723084   -5.490516    1.962582 H         1 <1>         0.023544 
     87 H           1.932016   -5.373231    0.396854 H         1 <1>         0.023544 
     88 H           1.048458   -4.867099    1.844624 H         1 <1>         0.023544 
     89 H           2.625057   -3.116124   -1.634641 H         1 <1>         0.023525 
     90 H           1.298170   -4.318325   -1.483683 H         1 <1>         0.023525 
     91 H           1.243166   -3.074906   -2.713664 H         1 <1>         0.023525 
     92 H          -0.734233   -3.766658   -0.095292 H         1 <1>         0.027078 
     93 H          -1.131227   -2.070582    0.253713 H         1 <1>         0.027078 
     94 H          -2.537963   -2.612911   -1.422866 H         1 <1>         0.026846 
     95 H          -1.388300   -3.526511   -2.410551 H         1 <1>         0.026846 
     96 H          -0.350625   -1.674416   -3.346467 H         1 <1>         0.031195 
     97 H          -0.924786   -0.640845   -5.405961 H         1 <1>         0.023820 
     98 H          -1.855339   -2.163404   -5.316803 H         1 <1>         0.023820 
     99 H          -2.631237   -0.669744   -5.857057 H         1 <1>         0.023820 
@<TRIPOS>BOND
     1    1    2 1    
     2    1   13 1    
     3    2    3 1    
     4    2   10 1    
     5    2   42 1    
     6    3    4 1    
     7    3    5 1    
     8    3   43 1    
     9    4   44 1    
    10    5    6 1    
    11    5    7 1    
    12    5   45 1    
    13    6   46 1    
    14    7    8 1    
    15    7    9 1    
    16    7   47 1    
    17    8   48 1    
    18    9   10 1    
    19    9   11 1    
    20    9   49 1    
    21   11   12 1    
    22   11   50 1    
    23   11   51 1    
    24   12   52 1    
    25   13   14 1    
    26   13   16 1    
    27   13   53 1    
    28   14   15 1    
    29   14   54 1    
    30   14   55 1    
    31   15   40 1    
    32   15   56 1    
    33   15   57 1    
    34   16   17 1    
    35   16   58 1    
    36   16   59 1    
    37   17   18 2    
    38   17   40 1    
    39   18   19 1    
    40   18   60 1    
    41   19   20 1    
    42   19   61 1    
    43   19   62 1    
    44   20   21 1    
    45   20   39 1    
    46   20   63 1    
    47   21   22 1    
    48   21   35 1    
    49   21   64 1    
    50   22   23 1    
    51   22   65 1    
    52   22   66 1    
    53   23   24 1    
    54   23   67 1    
    55   23   68 1    
    56   24   25 1    
    57   24   35 1    
    58   24   69 1    
    59   25   26 1    
    60   25   34 1    
    61   25   70 1    
    62   26   27 2    
    63   26   71 1    
    64   27   28 1    
    65   27   72 1    
    66   28   29 1    
    67   28   31 1    
    68   28   73 1    
    69   29   30 1    
    70   29   74 1    
    71   29   75 1    
    72   30   76 1    
    73   30   77 1    
    74   30   78 1    
    75   31   32 1    
    76   31   33 1    
    77   31   79 1    
    78   32   80 1    
    79   32   81 1    
    80   32   82 1    
    81   33   83 1    
    82   33   84 1    
    83   33   85 1    
    84   34   86 1    
    85   34   87 1    
    86   34   88 1    
    87   35   36 1    
    88   35   37 1    
    89   36   89 1    
    90   36   90 1    
    91   36   91 1    
    92   37   38 1    
    93   37   92 1    
    94   37   93 1    
    95   38   39 1    
    96   38   94 1    
    97   38   95 1    
    98   39   40 1    
    99   39   96 1    
   100   40   41 1    
   101   41   97 1    
   102   41   98 1    
   103   41   99 1    
@<TRIPOS>SUBSTRUCTURE
     1 ****        1 TEMP              0 ****  ****    0 ROOT 
@<TRIPOS>NORMAL
@<TRIPOS>FF_PBC
FORCE_FIELD_SETUP_FEATURE Force Field Setup information
v1.0  0 0.000000 0.000000 0.000000 0.000000 0.000000 0.000000 NONE 0 0 0 0 1 0 0 0 0 0 0 0 0
