@<TRIPOS>MOLECULE
MOL004814
   32    35     1     1     0
SMALL
GASTEIGER


@<TRIPOS>ATOM
      1 O           0.867237    0.869863   -0.226374 O.2       1 <1>        -0.202695 
      2 O          -1.350987   -2.734162   -0.010986 O.3       1 <1>        -0.272622 
      3 O          -1.540679    2.196912   -0.304369 O.3       1 <1>        -0.346846 
      4 O           0.620582   -3.762053    0.057378 O.2       1 <1>        -0.258461 
      5 O          -5.694875   -0.468356   -0.187705 O.3       1 <1>        -0.359666 
      6 O           5.872658    0.940206   -0.257656 O.3       1 <1>        -0.359526 
      7 C           0.054013   -0.234786   -0.161197 C.ar      1 <1>         0.382224 
      8 C           0.716244   -1.408388   -0.089418 C.ar      1 <1>         0.167192 
      9 C          -1.422701   -0.275956   -0.162303 C.ar      1 <1>         0.140106 
     10 C           2.137587   -1.061203   -0.112552 C.ar      1 <1>         0.101010 
     11 C           2.140444    0.318579   -0.198962 C.ar      1 <1>         0.367051 
     12 C          -2.072502   -1.529921   -0.089877 C.ar      1 <1>         0.107565 
     13 C          -2.206651    0.975319   -0.240309 C.ar      1 <1>         0.096928 
     14 C          -0.012092   -2.723097   -0.008870 C.2       1 <1>         0.308826 
     15 C           3.368992   -1.875743   -0.064021 C.ar      1 <1>        -0.042114 
     16 C           3.427283    1.047243   -0.252047 C.ar      1 <1>         0.072784 
     17 C          -3.553590   -1.568550   -0.099178 C.ar      1 <1>        -0.000232 
     18 C          -3.608021    0.922580   -0.255586 C.ar      1 <1>        -0.000865 
     19 C          -4.301798   -0.389258   -0.180091 C.ar      1 <1>         0.077533 
     20 C           4.593479   -1.179743   -0.113296 C.ar      1 <1>        -0.030761 
     21 C           4.630434    0.304411   -0.209980 C.ar      1 <1>         0.081518 
     22 C          -1.602870    2.989223    0.894083 C.3       1 <1>         0.043059 
     23 H           3.328962   -2.958369    0.006479 H         1 <1>         0.062744 
     24 H           3.430375    2.129084   -0.322322 H         1 <1>         0.073776 
     25 H          -4.063586   -2.523844   -0.043520 H         1 <1>         0.066951 
     26 H          -4.178538    1.842118   -0.324230 H         1 <1>         0.066934 
     27 H           5.529108   -1.728786   -0.080498 H         1 <1>         0.064346 
     28 H          -1.160154    2.445109    1.742947 H         1 <1>         0.052870 
     29 H          -2.638347    3.269040    1.141819 H         1 <1>         0.052870 
     30 H          -1.024274    3.909807    0.726778 H         1 <1>         0.052870 
     31 H          -6.131201    0.373799   -0.253739 H         1 <1>         0.217316 
     32 H           5.846069    1.889122   -0.319597 H         1 <1>         0.217318 
@<TRIPOS>BOND
     1    7    1 1    
     2    1   11 1    
     3   12    2 1    
     4    2   14 1    
     5   13    3 1    
     6    3   22 1    
     7   14    4 2    
     8   19    5 1    
     9    5   31 1    
    10   21    6 1    
    11    6   32 1    
    12    7    8 2    
    13    9    7 1    
    14    8   10 1    
    15   14    8 1    
    16   12    9 2    
    17    9   13 1    
    18   10   11 2    
    19   10   15 1    
    20   11   16 1    
    21   17   12 1    
    22   13   18 2    
    23   15   20 2    
    24   15   23 1    
    25   16   21 2    
    26   16   24 1    
    27   17   19 2    
    28   17   25 1    
    29   18   19 1    
    30   18   26 1    
    31   20   21 1    
    32   20   27 1    
    33   22   28 1    
    34   22   29 1    
    35   22   30 1    
@<TRIPOS>SUBSTRUCTURE
     1 ****        1 TEMP              0 ****  ****    0 ROOT 
@<TRIPOS>NORMAL
@<TRIPOS>FF_PBC
FORCE_FIELD_SETUP_FEATURE Force Field Setup information
v1.0  0 0.000000 0.000000 0.000000 0.000000 0.000000 0.000000 NONE 0 0 0 0 1 0 0 0 0 0 0 0 0
