@<TRIPOS>MOLECULE
MOL000025
   39    41     1     1     0
SMALL
GASTEIGER


@<TRIPOS>ATOM
      1 C          -0.816749   -0.651362    0.841645 C.3       1 <1>        -0.027774 
      2 C          -0.729099   -0.944604   -0.688086 C.3       1 <1>        -0.021903 
      3 C           0.511746   -1.784231   -1.148403 C.3       1 <1>        -0.046782 
      4 C           1.505912   -2.271006   -0.057604 C.3       1 <1>        -0.052044 
      5 C           2.064891   -1.234308    0.968669 C.3       1 <1>        -0.047574 
      6 C           1.683779    0.274915    0.818192 C.3       1 <1>        -0.031217 
      7 C           0.147530    0.554265    0.627474 C.3       1 <1>        -0.025249 
      8 C          -0.435257    0.574382   -0.814462 C.3       1 <1>        -0.010905 
      9 C          -1.734395    1.353247   -0.725436 C.2       1 <1>        -0.072627 
     10 C          -2.579999    1.052157    0.271274 C.2       1 <1>        -0.084447 
     11 C          -2.207290   -0.061323    1.227740 C.3       1 <1>        -0.030867 
     12 C          -1.985723    2.419684   -1.761866 C.3       1 <1>        -0.043497 
     13 C           2.106658    0.963016    2.161339 C.3       1 <1>        -0.059532 
     14 C           2.543099    0.951673   -0.294174 C.3       1 <1>        -0.059532 
     15 C          -2.009279   -1.462820   -1.418783 C.3       1 <1>        -0.058738 
     16 H          -0.528876   -1.457419    1.530052 H         1 <1>         0.031218 
     17 H           0.156834   -2.712694   -1.628279 H         1 <1>         0.027079 
     18 H           1.050229   -1.255046   -1.946887 H         1 <1>         0.027079 
     19 H           2.353724   -2.741546   -0.587455 H         1 <1>         0.026563 
     20 H           1.010663   -3.087488    0.498602 H         1 <1>         0.026563 
     21 H           3.166268   -1.301988    0.968137 H         1 <1>         0.027052 
     22 H           1.764108   -1.566950    1.976648 H         1 <1>         0.027052 
     23 H          -0.129736    1.475392    1.169527 H         1 <1>         0.031477 
     24 H           0.204023    0.913834   -1.641399 H         1 <1>         0.035383 
     25 H          -3.524101    1.581771    0.400533 H         1 <1>         0.057172 
     26 H          -2.971815   -0.853425    1.207197 H         1 <1>         0.031034 
     27 H          -2.160220    0.343207    2.251214 H         1 <1>         0.031034 
     28 H          -1.193055    3.180660   -1.704332 H         1 <1>         0.027445 
     29 H          -1.974689    1.964850   -2.763738 H         1 <1>         0.027445 
     30 H          -2.957491    2.914261   -1.613379 H         1 <1>         0.027445 
     31 H           2.006545    2.058117    2.097661 H         1 <1>         0.023508 
     32 H           3.155034    0.741891    2.416316 H         1 <1>         0.023508 
     33 H           1.474697    0.614600    2.993686 H         1 <1>         0.023508 
     34 H           2.215341    1.991167   -0.449822 H         1 <1>         0.023508 
     35 H           2.485066    0.418618   -1.250137 H         1 <1>         0.023508 
     36 H           3.606733    0.971696   -0.010433 H         1 <1>         0.023508 
     37 H          -2.214139   -2.491784   -1.086368 H         1 <1>         0.023534 
     38 H          -2.927210   -0.883310   -1.264799 H         1 <1>         0.023534 
     39 H          -1.818347   -1.472611   -2.502862 H         1 <1>         0.023534 
@<TRIPOS>BOND
     1    1    2 1    
     2    1    7 1    
     3    1   11 1    
     4    1   16 1    
     5    2    3 1    
     6    2    8 1    
     7    2   15 1    
     8    3    4 1    
     9    3   17 1    
    10    3   18 1    
    11    4    5 1    
    12    4   19 1    
    13    4   20 1    
    14    5    6 1    
    15    5   21 1    
    16    5   22 1    
    17    6    7 1    
    18    6   13 1    
    19    6   14 1    
    20    7    8 1    
    21    7   23 1    
    22    8    9 1    
    23    8   24 1    
    24    9   10 2    
    25    9   12 1    
    26   10   11 1    
    27   10   25 1    
    28   11   26 1    
    29   11   27 1    
    30   12   28 1    
    31   12   29 1    
    32   12   30 1    
    33   13   31 1    
    34   13   32 1    
    35   13   33 1    
    36   14   34 1    
    37   14   35 1    
    38   14   36 1    
    39   15   37 1    
    40   15   38 1    
    41   15   39 1    
@<TRIPOS>SUBSTRUCTURE
     1 ****        1 TEMP              0 ****  ****    0 ROOT 
@<TRIPOS>NORMAL
@<TRIPOS>FF_PBC
FORCE_FIELD_SETUP_FEATURE Force Field Setup information
v1.0  0 0.000000 0.000000 0.000000 0.000000 0.000000 0.000000 NONE 0 0 0 0 1 0 0 0 0 0 0 0 0
