@<TRIPOS>MOLECULE
MOL000032
   42    43     1     1     0
SMALL
GASTEIGER


@<TRIPOS>ATOM
      1 C           0.389636    0.854913   -0.264741 C.3       1 <1>        -0.040590 
      2 C           1.656375    0.197116    0.362511 C.3       1 <1>        -0.012073 
      3 C           1.513363   -1.353869    0.304213 C.3       1 <1>        -0.047093 
      4 C           0.184556   -1.835195    0.954696 C.3       1 <1>        -0.046738 
      5 C          -1.092041   -1.162659    0.362138 C.3       1 <1>        -0.025535 
      6 C          -2.320031   -1.560631    1.247626 C.3       1 <1>        -0.046792 
      7 C          -3.629878   -0.834470    0.836847 C.3       1 <1>        -0.048852 
      8 C          -3.418192    0.700658    0.830612 C.3       1 <1>        -0.031698 
      9 C          -2.206176    1.043394   -0.009370 C.2       1 <1>        -0.072999 
     10 C          -0.914781    0.383434    0.439828 C.3       1 <1>        -0.014414 
     11 C           3.004480    0.743750   -0.240925 C.3       1 <1>         0.063348 
     12 C           3.299570    2.193159    0.246212 C.3       1 <1>        -0.036079 
     13 C          -2.306499    1.866066   -1.063562 C.2       1 <1>        -0.099166 
     14 C           3.046675    0.729526   -1.797738 C.3       1 <1>        -0.036079 
     15 O           4.129890   -0.010816    0.248439 O.3       1 <1>        -0.388845 
     16 C          -1.332949   -1.649915   -1.104225 C.3       1 <1>        -0.059018 
     17 H           0.448593    1.948839   -0.162307 H         1 <1>         0.027469 
     18 H           0.335589    0.612613   -1.334008 H         1 <1>         0.027469 
     19 H           1.670990    0.450255    1.436135 H         1 <1>         0.032842 
     20 H           1.592890   -1.714997   -0.729349 H         1 <1>         0.026900 
     21 H           2.325632   -1.831719    0.875970 H         1 <1>         0.026900 
     22 H           0.101310   -2.929755    0.854455 H         1 <1>         0.027079 
     23 H           0.246188   -1.606726    2.031711 H         1 <1>         0.027079 
     24 H          -2.480318   -2.650245    1.207185 H         1 <1>         0.027079 
     25 H          -2.120513   -1.298301    2.299603 H         1 <1>         0.027079 
     26 H          -4.431130   -1.089754    1.551251 H         1 <1>         0.026847 
     27 H          -3.966373   -1.169551   -0.156203 H         1 <1>         0.026847 
     28 H          -3.240860    1.052160    1.859390 H         1 <1>         0.030999 
     29 H          -4.338101    1.187925    0.468481 H         1 <1>         0.030999 
     30 H          -0.793333    0.668955    1.498533 H         1 <1>         0.035089 
     31 H           3.306873    2.237536    1.346000 H         1 <1>         0.025721 
     32 H           2.567448    2.921112   -0.130058 H         1 <1>         0.025721 
     33 H           4.294339    2.506803   -0.107132 H         1 <1>         0.025721 
     34 H          -1.467495    2.139494   -1.699351 H         1 <1>         0.053449 
     35 H          -3.262464    2.309960   -1.339385 H         1 <1>         0.053449 
     36 H           2.796341   -0.262978   -2.197214 H         1 <1>         0.025721 
     37 H           2.354996    1.468564   -2.228251 H         1 <1>         0.025721 
     38 H           4.061376    0.984593   -2.139831 H         1 <1>         0.025721 
     39 H           4.194394   -0.887915   -0.111667 H         1 <1>         0.210147 
     40 H          -0.452359   -1.544113   -1.748438 H         1 <1>         0.023525 
     41 H          -2.142362   -1.090645   -1.593280 H         1 <1>         0.023525 
     42 H          -1.605556   -2.716072   -1.104998 H         1 <1>         0.023525 
@<TRIPOS>BOND
     1    1    2 1    
     2    1   10 1    
     3    1   17 1    
     4    1   18 1    
     5    2    3 1    
     6    2   11 1    
     7    2   19 1    
     8    3    4 1    
     9    3   20 1    
    10    3   21 1    
    11    4    5 1    
    12    4   22 1    
    13    4   23 1    
    14    5    6 1    
    15    5   10 1    
    16    5   16 1    
    17    6    7 1    
    18    6   24 1    
    19    6   25 1    
    20    7    8 1    
    21    7   26 1    
    22    7   27 1    
    23    8    9 1    
    24    8   28 1    
    25    8   29 1    
    26    9   10 1    
    27    9   13 2    
    28   10   30 1    
    29   11   12 1    
    30   11   14 1    
    31   11   15 1    
    32   12   31 1    
    33   12   32 1    
    34   12   33 1    
    35   13   34 1    
    36   13   35 1    
    37   14   36 1    
    38   14   37 1    
    39   14   38 1    
    40   15   39 1    
    41   16   40 1    
    42   16   41 1    
    43   16   42 1    
@<TRIPOS>SUBSTRUCTURE
     1 ****        1 TEMP              0 ****  ****    0 ROOT 
@<TRIPOS>NORMAL
@<TRIPOS>FF_PBC
FORCE_FIELD_SETUP_FEATURE Force Field Setup information
v1.0  0 0.000000 0.000000 0.000000 0.000000 0.000000 0.000000 NONE 0 0 0 0 1 0 0 0 0 0 0 0 0
