@<TRIPOS>MOLECULE
MOL005282
   86    89     1     1     0
SMALL
GASTEIGER


@<TRIPOS>ATOM
      1 C          -5.224835   -0.310977    0.421950 C.3       1 <1>        -0.025829 
      2 C          -5.572531   -1.666533   -0.249591 C.3       1 <1>         0.060719 
      3 C          -4.981463   -1.790446   -1.698855 C.3       1 <1>        -0.003252 
      4 C          -3.438175   -1.423602   -1.634818 C.3       1 <1>        -0.001805 
      5 C          -3.019457   -0.051164   -0.985939 C.3       1 <1>        -0.022826 
      6 C          -3.700497   -0.013344    0.425697 C.3       1 <1>        -0.044647 
      7 C          -2.587851   -1.835648   -2.886557 C.3       1 <1>         0.059651 
      8 C          -1.107791   -1.345319   -2.846851 C.3       1 <1>        -0.020362 
      9 C          -0.533626   -1.061536   -1.420785 C.3       1 <1>        -0.020580 
     10 C          -1.430936    0.111972   -0.867590 C.3       1 <1>        -0.026947 
     11 C           0.981997   -0.577780   -1.512282 C.3       1 <1>        -0.020803 
     12 C           1.433913   -0.155181   -0.073999 C.3       1 <1>        -0.003644 
     13 C           0.647313    1.074846    0.450252 C.3       1 <1>         0.059199 
     14 C          -0.877927    0.732308    0.458785 C.3       1 <1>        -0.022710 
     15 C           2.993948   -0.233423   -0.100366 C.3       1 <1>        -0.006683 
     16 C           3.132441   -1.626650   -0.781935 C.3       1 <1>        -0.046740 
     17 C           2.030969   -1.688571   -1.882229 C.3       1 <1>        -0.046421 
     18 C           3.747187   -0.096755    1.270792 C.3       1 <1>         0.066753 
     19 C           3.984674    1.423371    1.587924 C.3       1 <1>        -0.020552 
     20 O          -3.206445   -1.391317   -4.107713 O.3       1 <1>        -0.391457 
     21 O           2.954440   -0.766848    2.268437 O.3       1 <1>        -0.388552 
     22 O           1.016684    1.352060    1.814843 O.3       1 <1>        -0.391475 
     23 C          -0.634893   -2.356664   -0.523488 C.3       1 <1>        -0.058701 
     24 C          -3.552941    1.155713   -1.831840 C.3       1 <1>        -0.058936 
     25 C           1.238529    0.573209   -2.568266 C.3       1 <1>        -0.058709 
     26 C           4.138440    1.774675    3.095185 C.3       1 <1>        -0.031929 
     27 C           4.459246    3.241541    3.287949 C.2       1 <1>        -0.085195 
     28 C           5.192867    3.746322    4.293936 C.2       1 <1>        -0.079616 
     29 C           5.500154    5.226129    4.381468 C.3       1 <1>        -0.044050 
     30 C           5.765918    2.894726    5.405708 C.3       1 <1>        -0.044050 
     31 O          -7.012058   -1.739616   -0.205952 O.3       1 <1>        -0.391246 
     32 C           5.133153   -0.811969    1.213899 C.3       1 <1>        -0.035798 
     33 C          -5.109349   -3.286234   -2.157876 C.3       1 <1>        -0.057108 
     34 C          -5.872966   -0.953448   -2.682547 C.3       1 <1>        -0.057108 
     35 H          -5.574932   -0.356047    1.468148 H         1 <1>         0.029037 
     36 H          -5.785773    0.511876   -0.040643 H         1 <1>         0.029037 
     37 H          -5.154794   -2.464173    0.391409 H         1 <1>         0.059853 
     38 H          -3.120987   -2.137884   -0.870548 H         1 <1>         0.033703 
     39 H          -3.238934   -0.765334    1.084569 H         1 <1>         0.027150 
     40 H          -3.579718    0.973336    0.898014 H         1 <1>         0.027150 
     41 H          -2.552875   -2.939803   -2.935912 H         1 <1>         0.059637 
     42 H          -1.120984   -0.415244   -3.432169 H         1 <1>         0.029566 
     43 H          -0.455524   -2.053711   -3.383071 H         1 <1>         0.029566 
     44 H          -1.200607    0.938864   -1.541688 H         1 <1>         0.031237 
     45 H           1.156013   -0.907901    0.674825 H         1 <1>         0.033467 
     46 H           0.872722    1.956202   -0.171060 H         1 <1>         0.059620 
     47 H          -1.400434    1.674312    0.691628 H         1 <1>         0.029314 
     48 H          -1.045734    0.037609    1.293988 H         1 <1>         0.029314 
     49 H           3.439282    0.517357   -0.766192 H         1 <1>         0.033201 
     50 H           4.137553   -1.802029   -1.200426 H         1 <1>         0.026910 
     51 H           2.930131   -2.413291   -0.035459 H         1 <1>         0.026910 
     52 H           2.519049   -1.501161   -2.853128 H         1 <1>         0.027088 
     53 H           1.616114   -2.702080   -1.982621 H         1 <1>         0.027088 
     54 H           3.169279    2.038507    1.185962 H         1 <1>         0.029579 
     55 H           4.894201    1.759483    1.063795 H         1 <1>         0.029579 
     56 H          -2.755954   -1.678506   -4.896457 H         1 <1>         0.209789 
     57 H           3.356068   -0.806458    3.128374 H         1 <1>         0.210159 
     58 H           0.572321    2.106245    2.189026 H         1 <1>         0.209789 
     59 H           0.314578   -2.770833   -0.167337 H         1 <1>         0.023534 
     60 H          -1.215419   -2.170523    0.389888 H         1 <1>         0.023534 
     61 H          -1.092874   -3.198387   -1.060230 H         1 <1>         0.023534 
     62 H          -3.197179    2.107132   -1.405608 H         1 <1>         0.023526 
     63 H          -3.192046    1.081473   -2.869054 H         1 <1>         0.023526 
     64 H          -4.636922    1.248132   -1.874072 H         1 <1>         0.023526 
     65 H           0.682020    1.505552   -2.432409 H         1 <1>         0.023534 
     66 H           1.026045    0.219195   -3.586569 H         1 <1>         0.023534 
     67 H           2.289066    0.884022   -2.606695 H         1 <1>         0.023534 
     68 H           4.928948    1.145949    3.527716 H         1 <1>         0.030829 
     69 H           3.191409    1.573327    3.620319 H         1 <1>         0.030829 
     70 H           4.053168    3.928061    2.544209 H         1 <1>         0.057146 
     71 H           5.134904    5.795508    3.513413 H         1 <1>         0.027427 
     72 H           5.034000    5.645299    5.285881 H         1 <1>         0.027427 
     73 H           6.589634    5.367288    4.446469 H         1 <1>         0.027427 
     74 H           5.084407    2.079348    5.689607 H         1 <1>         0.027427 
     75 H           5.943954    3.496058    6.310195 H         1 <1>         0.027427 
     76 H           6.725764    2.469018    5.077223 H         1 <1>         0.027427 
     77 H          -7.378714   -2.570670   -0.483675 H         1 <1>         0.209800 
     78 H           5.715937   -0.464546    0.347071 H         1 <1>         0.025730 
     79 H           5.720065   -0.612801    2.121675 H         1 <1>         0.025730 
     80 H           5.014174   -1.902836    1.143512 H         1 <1>         0.025730 
     81 H          -4.829138   -3.391627   -3.216634 H         1 <1>         0.023588 
     82 H          -6.136670   -3.666376   -2.075644 H         1 <1>         0.023588 
     83 H          -4.473561   -3.956878   -1.559647 H         1 <1>         0.023588 
     84 H          -6.383482   -0.112595   -2.198843 H         1 <1>         0.023588 
     85 H          -5.309691   -0.559117   -3.535306 H         1 <1>         0.023588 
     86 H          -6.690076   -1.564633   -3.094868 H         1 <1>         0.023588 
@<TRIPOS>BOND
     1    1    2 1    
     2    1    6 1    
     3    1   35 1    
     4    1   36 1    
     5    2    3 1    
     6    2   31 1    
     7    2   37 1    
     8    3    4 1    
     9    3   33 1    
    10    3   34 1    
    11    4    5 1    
    12    4    7 1    
    13    4   38 1    
    14    5    6 1    
    15    5   10 1    
    16    5   24 1    
    17    6   39 1    
    18    6   40 1    
    19    7    8 1    
    20    7   20 1    
    21    7   41 1    
    22    8    9 1    
    23    8   42 1    
    24    8   43 1    
    25    9   10 1    
    26    9   11 1    
    27    9   23 1    
    28   10   14 1    
    29   10   44 1    
    30   11   12 1    
    31   11   17 1    
    32   11   25 1    
    33   12   13 1    
    34   12   15 1    
    35   12   45 1    
    36   13   14 1    
    37   13   22 1    
    38   13   46 1    
    39   14   47 1    
    40   14   48 1    
    41   15   16 1    
    42   15   18 1    
    43   15   49 1    
    44   16   17 1    
    45   16   50 1    
    46   16   51 1    
    47   17   52 1    
    48   17   53 1    
    49   18   19 1    
    50   18   21 1    
    51   18   32 1    
    52   19   26 1    
    53   19   54 1    
    54   19   55 1    
    55   20   56 1    
    56   21   57 1    
    57   22   58 1    
    58   23   59 1    
    59   23   60 1    
    60   23   61 1    
    61   24   62 1    
    62   24   63 1    
    63   24   64 1    
    64   25   65 1    
    65   25   66 1    
    66   25   67 1    
    67   26   27 1    
    68   26   68 1    
    69   26   69 1    
    70   27   28 2    
    71   27   70 1    
    72   28   29 1    
    73   28   30 1    
    74   29   71 1    
    75   29   72 1    
    76   29   73 1    
    77   30   74 1    
    78   30   75 1    
    79   30   76 1    
    80   31   77 1    
    81   32   78 1    
    82   32   79 1    
    83   32   80 1    
    84   33   81 1    
    85   33   82 1    
    86   33   83 1    
    87   34   84 1    
    88   34   85 1    
    89   34   86 1    
@<TRIPOS>SUBSTRUCTURE
     1 ****        1 TEMP              0 ****  ****    0 ROOT 
@<TRIPOS>NORMAL
@<TRIPOS>FF_PBC
FORCE_FIELD_SETUP_FEATURE Force Field Setup information
v1.0  0 0.000000 0.000000 0.000000 0.000000 0.000000 0.000000 NONE 0 0 0 0 1 0 0 0 0 0 0 0 0
