@<TRIPOS>MOLECULE
MOL000202
   26    26     1     1     0
SMALL
GASTEIGER


@<TRIPOS>ATOM
      1 C          -0.118974   -0.588954    0.023076 C.2       1 <1>        -0.066856 
      2 C          -0.759030   -1.963905    0.115492 C.3       1 <1>        -0.025263 
      3 C           1.389664   -0.548240    0.052850 C.3       1 <1>        -0.013026 
      4 C          -0.848405    0.529651   -0.076089 C.2       1 <1>        -0.080241 
      5 C          -1.613994   -2.085564    1.406084 C.3       1 <1>        -0.058944 
      6 C          -1.594956   -2.287908   -1.152139 C.3       1 <1>        -0.058944 
      7 C           1.986501    0.832031   -0.011128 C.2       1 <1>        -0.080732 
      8 C          -0.251969    1.909736   -0.158848 C.3       1 <1>        -0.013515 
      9 C           1.253716    1.948730   -0.107445 C.2       1 <1>        -0.072504 
     10 C           1.880564    3.323957   -0.171599 C.3       1 <1>        -0.043486 
     11 H           0.031945   -2.733149    0.179881 H         1 <1>         0.034035 
     12 H           1.736550   -1.024914    0.982755 H         1 <1>         0.035247 
     13 H           1.771593   -1.123697   -0.804336 H         1 <1>         0.035247 
     14 H          -1.936649    0.475903   -0.099077 H         1 <1>         0.057496 
     15 H          -2.019912   -3.104554    1.502038 H         1 <1>         0.023536 
     16 H          -0.989578   -1.874100    2.288370 H         1 <1>         0.023536 
     17 H          -2.457156   -1.378987    1.398351 H         1 <1>         0.023536 
     18 H          -1.976089   -3.320349   -1.105449 H         1 <1>         0.023536 
     19 H          -0.964924   -2.188777   -2.049824 H         1 <1>         0.023536 
     20 H          -2.455400   -1.609840   -1.252116 H         1 <1>         0.023536 
     21 H           3.074373    0.898189    0.024427 H         1 <1>         0.057479 
     22 H          -0.584747    2.371594   -1.100759 H         1 <1>         0.035230 
     23 H          -0.646605    2.501551    0.681827 H         1 <1>         0.035230 
     24 H           2.979534    3.291456   -0.122464 H         1 <1>         0.027445 
     25 H           1.519344    3.934879    0.669537 H         1 <1>         0.027445 
     26 H           1.594106    3.815256   -1.113412 H         1 <1>         0.027445 
@<TRIPOS>BOND
     1    1    2 1    
     2    1    3 1    
     3    1    4 2    
     4    2    5 1    
     5    2    6 1    
     6    2   11 1    
     7    3    7 1    
     8    3   12 1    
     9    3   13 1    
    10    4    8 1    
    11    4   14 1    
    12    5   15 1    
    13    5   16 1    
    14    5   17 1    
    15    6   18 1    
    16    6   19 1    
    17    6   20 1    
    18    7    9 2    
    19    7   21 1    
    20    8    9 1    
    21    8   22 1    
    22    8   23 1    
    23    9   10 1    
    24   10   24 1    
    25   10   25 1    
    26   10   26 1    
@<TRIPOS>SUBSTRUCTURE
     1 ****        1 TEMP              0 ****  ****    0 ROOT 
@<TRIPOS>NORMAL
@<TRIPOS>FF_PBC
FORCE_FIELD_SETUP_FEATURE Force Field Setup information
v1.0  0 0.000000 0.000000 0.000000 0.000000 0.000000 0.000000 NONE 0 0 0 0 1 0 0 0 0 0 0 0 0
