@<TRIPOS>MOLECULE
MOL007213
   43    46     1     1     0
SMALL
GASTEIGER


@<TRIPOS>ATOM
      1 C          -0.334654   -0.468260   -0.245336 C.ar      1 <1>         0.019824 
      2 C           0.700606    0.594109   -0.280578 C.ar      1 <1>        -0.016425 
      3 C          -1.753688   -0.053611   -0.409541 C.ar      1 <1>        -0.011780 
      4 C           0.079397   -1.841815   -0.044832 C.ar      1 <1>         0.113655 
      5 C           0.257960    2.056744   -0.390441 C.3       1 <1>         0.040227 
      6 C           2.091037    0.248122   -0.201702 C.ar      1 <1>        -0.038298 
      7 C          -2.119903    1.330178   -0.021195 C.ar      1 <1>        -0.037771 
      8 C          -2.783113   -0.917612   -0.939915 C.ar      1 <1>        -0.053678 
      9 C           1.524773   -2.173804    0.044289 C.ar      1 <1>         0.106528 
     10 O          -0.872779   -2.855429    0.067708 O.3       1 <1>        -0.344722 
     11 C          -1.016379    2.270255    0.468957 C.3       1 <1>        -0.007291 
     12 N           1.361135    2.995560   -0.059080 N.3       1 <1>        -0.297793 
     13 C           2.482816   -1.171714   -0.038763 C.ar      1 <1>        -0.025582 
     14 C           3.179564    1.321977   -0.274815 C.3       1 <1>        -0.014446 
     15 C          -3.477982    1.769681   -0.120404 C.ar      1 <1>        -0.057935 
     16 C          -4.184019   -0.442370   -1.032972 C.ar      1 <1>        -0.061166 
     17 O           1.939251   -3.497407    0.210561 O.3       1 <1>        -0.345313 
     18 C          -1.061180   -3.327133    1.410410 C.3       1 <1>         0.043161 
     19 C           2.597505    2.655982   -0.802672 C.3       1 <1>         0.003178 
     20 C           1.574014    3.300749    1.377307 C.3       1 <1>        -0.012160 
     21 C          -4.522038    0.851320   -0.631231 C.ar      1 <1>        -0.061465 
     22 C           1.732431   -4.335366   -0.938235 C.3       1 <1>         0.043136 
     23 H          -0.023361    2.229965   -1.442582 H         1 <1>         0.051550 
     24 H          -2.554931   -1.919846   -1.279533 H         1 <1>         0.062371 
     25 H          -0.835814    2.025101    1.526127 H         1 <1>         0.033180 
     26 H          -1.335012    3.321503    0.390128 H         1 <1>         0.033180 
     27 H           3.531976   -1.438670    0.022144 H         1 <1>         0.064694 
     28 H           3.990939    0.982636   -0.938597 H         1 <1>         0.032566 
     29 H           3.594680    1.454618    0.735817 H         1 <1>         0.032566 
     30 H          -3.750936    2.778104    0.171653 H         1 <1>         0.062048 
     31 H          -4.951435   -1.108794   -1.414082 H         1 <1>         0.061776 
     32 H          -1.833599   -4.109789    1.394118 H         1 <1>         0.052871 
     33 H          -0.133020   -3.756715    1.817941 H         1 <1>         0.052871 
     34 H          -1.401627   -2.507205    2.061989 H         1 <1>         0.052871 
     35 H           2.366950    2.555218   -1.876176 H         1 <1>         0.042976 
     36 H           3.343621    3.461591   -0.707640 H         1 <1>         0.042976 
     37 H           0.750108    3.925918    1.751156 H         1 <1>         0.039081 
     38 H           1.623845    2.378891    1.976966 H         1 <1>         0.039081 
     39 H           2.503811    3.868680    1.533419 H         1 <1>         0.039081 
     40 H          -5.551521    1.189289   -0.695421 H         1 <1>         0.061767 
     41 H           2.111682   -5.340149   -0.701312 H         1 <1>         0.052871 
     42 H           2.287611   -3.943479   -1.804630 H         1 <1>         0.052871 
     43 H           0.666110   -4.417112   -1.197549 H         1 <1>         0.052871 
@<TRIPOS>BOND
     1    1    2 1    
     2    1    3 1    
     3    1    4 2    
     4    2    5 1    
     5    2    6 2    
     6    3    7 1    
     7    3    8 2    
     8    4    9 1    
     9    4   10 1    
    10    5   11 1    
    11    5   12 1    
    12    5   23 1    
    13    6   13 1    
    14    6   14 1    
    15    7   11 1    
    16    7   15 2    
    17    8   16 1    
    18    8   24 1    
    19    9   13 2    
    20    9   17 1    
    21   10   18 1    
    22   11   25 1    
    23   11   26 1    
    24   12   19 1    
    25   12   20 1    
    26   13   27 1    
    27   14   19 1    
    28   14   28 1    
    29   14   29 1    
    30   15   21 1    
    31   15   30 1    
    32   16   21 2    
    33   16   31 1    
    34   17   22 1    
    35   18   32 1    
    36   18   33 1    
    37   18   34 1    
    38   19   35 1    
    39   19   36 1    
    40   20   37 1    
    41   20   38 1    
    42   20   39 1    
    43   21   40 1    
    44   22   41 1    
    45   22   42 1    
    46   22   43 1    
@<TRIPOS>SUBSTRUCTURE
     1 ****        1 TEMP              0 ****  ****    0 ROOT 
@<TRIPOS>NORMAL
@<TRIPOS>FF_PBC
FORCE_FIELD_SETUP_FEATURE Force Field Setup information
v1.0  0 0.000000 0.000000 0.000000 0.000000 0.000000 0.000000 NONE 0 0 0 0 1 0 0 0 0 0 0 0 0
