@<TRIPOS>MOLECULE
MOL000611
   39    41     1     1     0
SMALL
GASTEIGER


@<TRIPOS>ATOM
      1 C          -0.153793   -1.311053   -0.040803 C.3       1 <1>        -0.025032 
      2 C          -0.174450    0.238302   -0.012176 C.3       1 <1>        -0.025522 
      3 C           1.302172    0.716039    0.117090 C.3       1 <1>        -0.034802 
      4 C           1.959380   -0.473692    0.872319 C.3       1 <1>        -0.049178 
      5 C           1.331961   -1.708589    0.191832 C.3       1 <1>        -0.046803 
      6 C          -0.955212    0.198854    1.327185 C.3       1 <1>        -0.013222 
      7 C          -1.012612   -1.345088    1.258948 C.3       1 <1>        -0.028282 
      8 C          -2.525047   -1.698057    1.169605 C.3       1 <1>        -0.045464 
      9 C          -3.284812   -0.436496    0.686868 C.3       1 <1>        -0.031429 
     10 C          -2.384576    0.644674    1.204300 C.2       1 <1>        -0.072947 
     11 C           1.906448    1.026877   -1.296320 C.3       1 <1>        -0.043599 
     12 C           3.462361    1.077780   -1.301269 C.3       1 <1>        -0.062405 
     13 C           1.377602    2.392503   -1.832032 C.3       1 <1>        -0.062405 
     14 C          -2.802133    1.873159    1.529421 C.2       1 <1>        -0.099166 
     15 C          -0.749065   -1.993967   -1.302162 C.3       1 <1>        -0.059010 
     16 H          -0.772887    0.681989   -0.821154 H         1 <1>         0.031468 
     17 H           1.374965    1.628227    0.732172 H         1 <1>         0.030629 
     18 H           1.663664   -0.464441    1.933317 H         1 <1>         0.026828 
     19 H           3.057808   -0.486166    0.863140 H         1 <1>         0.026828 
     20 H           1.848806   -1.871423   -0.767000 H         1 <1>         0.027078 
     21 H           1.433765   -2.627992    0.790160 H         1 <1>         0.027078 
     22 H          -0.438426    0.608580    2.209407 H         1 <1>         0.035131 
     23 H          -0.505112   -1.853732    2.095870 H         1 <1>         0.031202 
     24 H          -2.867534   -1.909490    2.197105 H         1 <1>         0.027131 
     25 H          -2.730020   -2.590876    0.559676 H         1 <1>         0.027131 
     26 H          -3.324404   -0.360897   -0.408504 H         1 <1>         0.031008 
     27 H          -4.311694   -0.380575    1.083451 H         1 <1>         0.031008 
     28 H           1.596064    0.245753   -2.010840 H         1 <1>         0.029823 
     29 H           3.900523    0.075137   -1.189348 H         1 <1>         0.023242 
     30 H           3.837779    1.478846   -2.255491 H         1 <1>         0.023242 
     31 H           3.824839    1.724494   -0.487483 H         1 <1>         0.023242 
     32 H           0.280896    2.433198   -1.876175 H         1 <1>         0.023242 
     33 H           1.751707    2.578266   -2.851088 H         1 <1>         0.023242 
     34 H           1.723831    3.213080   -1.184867 H         1 <1>         0.023242 
     35 H          -2.099030    2.617452    1.901929 H         1 <1>         0.053449 
     36 H          -3.849812    2.153548    1.426447 H         1 <1>         0.053449 
     37 H          -0.777763   -3.082227   -1.142904 H         1 <1>         0.023525 
     38 H          -1.760456   -1.643699   -1.537954 H         1 <1>         0.023525 
     39 H          -0.118838   -1.783199   -2.178866 H         1 <1>         0.023525 
@<TRIPOS>BOND
     1    1    2 1    
     2    1    5 1    
     3    1    7 1    
     4    1   15 1    
     5    2    3 1    
     6    2    6 1    
     7    2   16 1    
     8    3    4 1    
     9    3   11 1    
    10    3   17 1    
    11    4    5 1    
    12    4   18 1    
    13    4   19 1    
    14    5   20 1    
    15    5   21 1    
    16    6    7 1    
    17    6   10 1    
    18    6   22 1    
    19    7    8 1    
    20    7   23 1    
    21    8    9 1    
    22    8   24 1    
    23    8   25 1    
    24    9   10 1    
    25    9   26 1    
    26    9   27 1    
    27   10   14 2    
    28   11   12 1    
    29   11   13 1    
    30   11   28 1    
    31   12   29 1    
    32   12   30 1    
    33   12   31 1    
    34   13   32 1    
    35   13   33 1    
    36   13   34 1    
    37   14   35 1    
    38   14   36 1    
    39   15   37 1    
    40   15   38 1    
    41   15   39 1    
@<TRIPOS>SUBSTRUCTURE
     1 ****        1 TEMP              0 ****  ****    0 ROOT 
@<TRIPOS>NORMAL
@<TRIPOS>FF_PBC
FORCE_FIELD_SETUP_FEATURE Force Field Setup information
v1.0  0 0.000000 0.000000 0.000000 0.000000 0.000000 0.000000 NONE 0 0 0 0 1 0 0 0 0 0 0 0 0
