@<TRIPOS>MOLECULE
MOL002147
   34    35     1     1     0
SMALL
GASTEIGER


@<TRIPOS>ATOM
      1 C          -1.345209    0.246088   -0.430994 C.3       1 <1>        -0.026057 
      2 C          -2.684948   -0.461946   -0.078025 C.3       1 <1>        -0.020306 
      3 C          -2.839368   -1.814330   -0.825617 C.3       1 <1>         0.085659 
      4 C          -1.730154   -2.808541   -0.382275 C.3       1 <1>         0.111552 
      5 C          -0.416567   -2.084877   -0.440253 C.2       1 <1>         0.056444 
      6 C          -0.235875   -0.770588   -0.469188 C.2       1 <1>        -0.029107 
      7 C           0.939680   -2.601884   -0.494978 C.2       1 <1>         0.292959 
      8 O           1.896567   -1.677692   -0.548039 O.3       1 <1>        -0.303862 
      9 C           1.227328   -0.390577   -0.572835 C.3       1 <1>         0.090201 
     10 O          -4.139803   -2.353713   -0.529205 O.3       1 <1>        -0.388883 
     11 O          -1.726577   -3.944083   -1.266344 O.3       1 <1>        -0.384417 
     12 O           1.181305   -3.797299   -0.487661 O.2       1 <1>        -0.259463 
     13 C           1.767415    0.488113    0.588195 C.3       1 <1>        -0.022112 
     14 C           1.763951    2.006399    0.250784 C.3       1 <1>        -0.050640 
     15 C           2.241992    2.851308    1.463144 C.3       1 <1>        -0.055821 
     16 C           2.254738    4.365421    1.127121 C.3       1 <1>        -0.065275 
     17 H          -1.407435    0.719232   -1.423748 H         1 <1>         0.031182 
     18 H          -1.154829    1.022124    0.324839 H         1 <1>         0.031182 
     19 H          -2.721785   -0.669595    1.004285 H         1 <1>         0.029403 
     20 H          -3.531220    0.200632   -0.323983 H         1 <1>         0.029403 
     21 H          -2.747588   -1.627704   -1.910683 H         1 <1>         0.062249 
     22 H          -1.920395   -3.121548    0.658324 H         1 <1>         0.067134 
     23 H           1.428922    0.068356   -1.554268 H         1 <1>         0.064939 
     24 H          -4.285808   -3.189277   -0.963816 H         1 <1>         0.209902 
     25 H          -1.047203   -4.577125   -1.049162 H         1 <1>         0.210347 
     26 H           2.813139    0.198032    0.782712 H         1 <1>         0.029352 
     27 H           1.186532    0.281267    1.501102 H         1 <1>         0.029352 
     28 H           0.756841    2.337307   -0.041463 H         1 <1>         0.026610 
     29 H           2.438112    2.188820   -0.602744 H         1 <1>         0.026610 
     30 H           3.258598    2.538598    1.754993 H         1 <1>         0.026266 
     31 H           1.569094    2.679612    2.319954 H         1 <1>         0.026266 
     32 H           2.595781    4.944320    2.000040 H         1 <1>         0.022978 
     33 H           1.244320    4.707514    0.853782 H         1 <1>         0.022978 
     34 H           2.936152    4.566947    0.285895 H         1 <1>         0.022978 
@<TRIPOS>BOND
     1    1    2 1    
     2    1    6 1    
     3    1   17 1    
     4    1   18 1    
     5    2    3 1    
     6    2   19 1    
     7    2   20 1    
     8    3    4 1    
     9    3   10 1    
    10    3   21 1    
    11    4    5 1    
    12    4   11 1    
    13    4   22 1    
    14    5    6 2    
    15    5    7 1    
    16    6    9 1    
    17    7    8 1    
    18    7   12 2    
    19    8    9 1    
    20    9   13 1    
    21    9   23 1    
    22   10   24 1    
    23   11   25 1    
    24   13   14 1    
    25   13   26 1    
    26   13   27 1    
    27   14   15 1    
    28   14   28 1    
    29   14   29 1    
    30   15   16 1    
    31   15   30 1    
    32   15   31 1    
    33   16   32 1    
    34   16   33 1    
    35   16   34 1    
@<TRIPOS>SUBSTRUCTURE
     1 ****        1 TEMP              0 ****  ****    0 ROOT 
@<TRIPOS>NORMAL
@<TRIPOS>FF_PBC
FORCE_FIELD_SETUP_FEATURE Force Field Setup information
v1.0  0 0.000000 0.000000 0.000000 0.000000 0.000000 0.000000 NONE 0 0 0 0 1 0 0 0 0 0 0 0 0
