@<TRIPOS>MOLECULE
MOL009549
   15    14     1     1     0
SMALL
GASTEIGER


@<TRIPOS>ATOM
      1 O           0.001729    0.295640    0.000002 O.3       1 <1>        -0.380299 
      2 C          -1.207806   -0.487771   -0.000041 C.3       1 <1>         0.044827 
      3 C           1.201985   -0.501909    0.000046 C.3       1 <1>         0.044827 
      4 C          -2.408511    0.487581    0.000068 C.3       1 <1>        -0.041570 
      5 C           2.414049    0.459277   -0.000074 C.3       1 <1>        -0.041570 
      6 H          -1.259367   -1.126119   -0.897956 H         1 <1>         0.055688 
      7 H          -1.259353   -1.126309    0.897741 H         1 <1>         0.055688 
      8 H           1.246053   -1.140813    0.897972 H         1 <1>         0.055688 
      9 H           1.246033   -1.141018   -0.897734 H         1 <1>         0.055688 
     10 H          -3.359329   -0.068348   -0.000018 H         1 <1>         0.025172 
     11 H          -2.369801    1.128182    0.894832 H         1 <1>         0.025172 
     12 H          -2.369787    1.128436   -0.894516 H         1 <1>         0.025172 
     13 H           3.358282   -0.107766    0.000018 H         1 <1>         0.025172 
     14 H           2.382866    1.100284   -0.894843 H         1 <1>         0.025172 
     15 H           2.382857    1.100557    0.894503 H         1 <1>         0.025172 
@<TRIPOS>BOND
     1    1    2 1    
     2    1    3 1    
     3    2    4 1    
     4    2    6 1    
     5    2    7 1    
     6    3    5 1    
     7    3    8 1    
     8    3    9 1    
     9    4   10 1    
    10    4   11 1    
    11    4   12 1    
    12    5   13 1    
    13    5   14 1    
    14    5   15 1    
@<TRIPOS>SUBSTRUCTURE
     1 ****        1 TEMP              0 ****  ****    0 ROOT 
@<TRIPOS>NORMAL
@<TRIPOS>FF_PBC
FORCE_FIELD_SETUP_FEATURE Force Field Setup information
v1.0  0 0.000000 0.000000 0.000000 0.000000 0.000000 0.000000 NONE 0 0 0 0 1 0 0 0 0 0 0 0 0
