@<TRIPOS>MOLECULE
MOL004955
   78    83     1     1     0
SMALL
GASTEIGER


@<TRIPOS>ATOM
      1 C          -0.842533   -2.846200    2.991000 C.3       1 <1>        -0.005578 
      2 C           0.510117   -2.015361    3.120679 C.3       1 <1>        -0.027446 
      3 C           0.469294   -0.437469    3.081669 C.3       1 <1>        -0.018250 
      4 C          -0.840772    0.112464    3.757575 C.3       1 <1>        -0.044330 
      5 C          -2.133604   -0.664246    3.419945 C.3       1 <1>        -0.025820 
      6 C          -1.951868   -2.143979    3.840170 C.3       1 <1>         0.060638 
      7 C           1.723066   -2.496522    2.251980 C.3       1 <1>        -0.048587 
      8 C           1.713475   -1.967272    0.791998 C.3       1 <1>        -0.045875 
      9 C           1.604539   -0.421637    0.562225 C.3       1 <1>        -0.012572 
     10 C           0.518734    0.081709    1.578001 C.3       1 <1>         0.033334 
     11 C           1.239072   -0.080889   -0.982213 C.3       1 <1>        -0.001892 
     12 C           0.429629    1.225267   -1.082833 C.2       1 <1>        -0.027307 
     13 C           0.178497    1.989155   -0.010440 C.2       1 <1>        -0.016385 
     14 C           0.520440    1.564307    1.344636 C.2       1 <1>         0.160280 
     15 C           0.256986   -1.086870   -1.670960 C.3       1 <1>        -0.042703 
     16 C          -0.143255   -0.808286   -3.162346 C.3       1 <1>        -0.043869 
     17 C          -0.148131    0.688492   -3.640041 C.3       1 <1>         0.001555 
     18 C          -0.248383    1.637976   -2.397534 C.3       1 <1>         0.107028 
     19 C          -1.411223    0.919588   -4.544549 C.3       1 <1>        -0.043710 
     20 C          -1.697982    2.427550   -4.821561 C.3       1 <1>        -0.037883 
     21 C          -1.552657    3.268260   -3.521831 C.3       1 <1>         0.056326 
     22 C          -0.158145    3.120468   -2.875418 C.3       1 <1>        -0.004285 
     23 C          -0.673222   -4.284686    3.602070 C.3       1 <1>        -0.057190 
     24 C          -1.413482   -3.109507    1.554392 C.3       1 <1>        -0.057190 
     25 O           0.755319    2.404707    2.199332 O.2       1 <1>        -0.292346 
     26 C           2.552860   -0.123116   -1.838657 C.3       1 <1>        -0.055218 
     27 O          -1.607189   -2.230093    5.238034 O.3       1 <1>        -0.391248 
     28 C           1.618842    0.094570    4.026422 C.3       1 <1>        -0.058618 
     29 C           2.950548    0.313362    0.907126 C.3       1 <1>        -0.058098 
     30 C           1.110559    1.040963   -4.522239 C.3       1 <1>        -0.056605 
     31 C          -2.327080    2.553253   -2.462572 C.2       1 <1>         0.269045 
     32 O          -1.606532    1.583004   -1.898920 O.3       1 <1>        -0.303127 
     33 O          -3.464446    2.832469   -2.123469 O.2       1 <1>        -0.264334 
     34 C          -1.986476    4.738665   -3.749863 C.3       1 <1>        -0.050388 
     35 H           0.799694   -2.255086    4.157686 H         1 <1>         0.031221 
     36 H          -0.784132    0.080245    4.857517 H         1 <1>         0.027160 
     37 H          -0.990569    1.171593    3.498479 H         1 <1>         0.027160 
     38 H          -2.968349   -0.232683    4.000038 H         1 <1>         0.029038 
     39 H          -2.407020   -0.564963    2.361013 H         1 <1>         0.029038 
     40 H          -2.920387   -2.661452    3.713666 H         1 <1>         0.059852 
     41 H           2.692067   -2.215655    2.684508 H         1 <1>         0.026846 
     42 H           1.734284   -3.595944    2.219981 H         1 <1>         0.026846 
     43 H           2.573232   -2.380164    0.241852 H         1 <1>         0.027107 
     44 H           0.822176   -2.446698    0.404664 H         1 <1>         0.027107 
     45 H          -0.433019   -0.243334    1.153896 H         1 <1>         0.039170 
     46 H          -0.355277    2.935813   -0.031176 H         1 <1>         0.065301 
     47 H           0.696805   -2.095591   -1.717133 H         1 <1>         0.027394 
     48 H          -0.661402   -1.131332   -1.065294 H         1 <1>         0.027394 
     49 H           0.480175   -1.407497   -3.845580 H         1 <1>         0.027178 
     50 H          -1.142668   -1.264431   -3.270326 H         1 <1>         0.027178 
     51 H          -1.311100    0.371412   -5.496651 H         1 <1>         0.027180 
     52 H          -2.312546    0.517909   -4.048565 H         1 <1>         0.027180 
     53 H          -1.052706    2.848937   -5.604807 H         1 <1>         0.027552 
     54 H          -2.733462    2.524238   -5.189870 H         1 <1>         0.027552 
     55 H          -0.055388    3.829250   -2.042786 H         1 <1>         0.030668 
     56 H           0.641544    3.383233   -3.581350 H         1 <1>         0.030668 
     57 H          -1.639062   -4.814351    3.625406 H         1 <1>         0.023587 
     58 H           0.016321   -4.909812    3.016753 H         1 <1>         0.023587 
     59 H          -0.294893   -4.260568    4.634792 H         1 <1>         0.023587 
     60 H          -2.426672   -3.533061    1.614249 H         1 <1>         0.023587 
     61 H          -1.497850   -2.213912    0.935539 H         1 <1>         0.023587 
     62 H          -0.817746   -3.856734    1.009604 H         1 <1>         0.023587 
     63 H           3.256837   -0.880574   -1.477508 H         1 <1>         0.023830 
     64 H           2.400505   -0.437415   -2.872177 H         1 <1>         0.023830 
     65 H           3.060010    0.853825   -1.851691 H         1 <1>         0.023830 
     66 H          -2.262418   -1.856671    5.818355 H         1 <1>         0.209800 
     67 H           2.604325   -0.355127    3.877592 H         1 <1>         0.023535 
     68 H           1.730624    1.183948    3.970816 H         1 <1>         0.023535 
     69 H           1.417077   -0.135732    5.085039 H         1 <1>         0.023535 
     70 H           3.836384   -0.265818    0.614085 H         1 <1>         0.023553 
     71 H           3.001547    1.300688    0.424351 H         1 <1>         0.023553 
     72 H           3.084528    0.530642    1.962400 H         1 <1>         0.023553 
     73 H           0.904112    1.800136   -5.282239 H         1 <1>         0.023607 
     74 H           1.935264    1.454661   -3.929954 H         1 <1>         0.023607 
     75 H           1.486496    0.179751   -5.091618 H         1 <1>         0.023607 
     76 H          -1.319407    5.222723   -4.481981 H         1 <1>         0.023987 
     77 H          -1.952739    5.296538   -2.799877 H         1 <1>         0.023987 
     78 H          -3.019353    4.753016   -4.133853 H         1 <1>         0.023987 
@<TRIPOS>BOND
     1    1    2 1    
     2    1    6 1    
     3    1   23 1    
     4    1   24 1    
     5    2    3 1    
     6    2    7 1    
     7    2   35 1    
     8    3    4 1    
     9    3   10 1    
    10    3   28 1    
    11    4    5 1    
    12    4   36 1    
    13    4   37 1    
    14    5    6 1    
    15    5   38 1    
    16    5   39 1    
    17    6   27 1    
    18    6   40 1    
    19    7    8 1    
    20    7   41 1    
    21    7   42 1    
    22    8    9 1    
    23    8   43 1    
    24    8   44 1    
    25    9   10 1    
    26    9   11 1    
    27    9   29 1    
    28   10   14 1    
    29   10   45 1    
    30   11   12 1    
    31   11   15 1    
    32   11   26 1    
    33   12   13 2    
    34   12   18 1    
    35   13   14 1    
    36   13   46 1    
    37   14   25 2    
    38   15   16 1    
    39   15   47 1    
    40   15   48 1    
    41   16   17 1    
    42   16   49 1    
    43   16   50 1    
    44   17   18 1    
    45   17   19 1    
    46   17   30 1    
    47   18   22 1    
    48   18   32 1    
    49   19   20 1    
    50   19   51 1    
    51   19   52 1    
    52   20   21 1    
    53   20   53 1    
    54   20   54 1    
    55   21   22 1    
    56   21   31 1    
    57   21   34 1    
    58   22   55 1    
    59   22   56 1    
    60   23   57 1    
    61   23   58 1    
    62   23   59 1    
    63   24   60 1    
    64   24   61 1    
    65   24   62 1    
    66   26   63 1    
    67   26   64 1    
    68   26   65 1    
    69   27   66 1    
    70   28   67 1    
    71   28   68 1    
    72   28   69 1    
    73   29   70 1    
    74   29   71 1    
    75   29   72 1    
    76   30   73 1    
    77   30   74 1    
    78   30   75 1    
    79   31   32 1    
    80   31   33 2    
    81   34   76 1    
    82   34   77 1    
    83   34   78 1    
@<TRIPOS>SUBSTRUCTURE
     1 ****        1 TEMP              0 ****  ****    0 ROOT 
@<TRIPOS>NORMAL
@<TRIPOS>FF_PBC
FORCE_FIELD_SETUP_FEATURE Force Field Setup information
v1.0  0 0.000000 0.000000 0.000000 0.000000 0.000000 0.000000 NONE 0 0 0 0 1 0 0 0 0 0 0 0 0
