@<TRIPOS>MOLECULE
MOL008049
   47    47     1     1     0
SMALL
GASTEIGER


@<TRIPOS>ATOM
      1 O           1.759306   -1.172312    1.418140 O.3       1 <1>        -0.359270 
      2 O          -3.549701   -3.958476    1.075128 O.3       1 <1>        -0.390745 
      3 O          -5.719741    3.718471    0.088677 O.3       1 <1>        -0.327929 
      4 O          -4.020954    4.854729   -0.780462 O.2       1 <1>        -0.260082 
      5 C          -0.611850   -0.573349    0.972462 C.ar      1 <1>        -0.013101 
      6 C           1.213752    1.134177    0.858085 C.ar      1 <1>        -0.013102 
      7 C           0.818959   -0.196651    1.086191 C.ar      1 <1>         0.079525 
      8 C          -1.046426   -2.020060    1.239243 C.3       1 <1>        -0.006704 
      9 C           2.680193    1.570300    0.990362 C.3       1 <1>        -0.006784 
     10 C          -1.561044    0.386077    0.619335 C.ar      1 <1>        -0.048653 
     11 C          -1.161291    1.793686    0.364592 C.ar      1 <1>        -0.024160 
     12 C           0.191608    2.141319    0.481173 C.ar      1 <1>        -0.048653 
     13 C          -1.014963   -2.767807   -0.072477 C.2       1 <1>        -0.078490 
     14 C           3.382942    1.357547   -0.329892 C.2       1 <1>        -0.080898 
     15 C          -2.074489   -3.305984   -0.699026 C.2       1 <1>        -0.051185 
     16 C           4.673984    1.018812   -0.479628 C.2       1 <1>        -0.079307 
     17 C          -2.154666    2.870724   -0.024078 C.2       1 <1>        -0.048924 
     18 C          -3.484437   -3.217220   -0.156201 C.3       1 <1>         0.065055 
     19 C          -1.917033   -4.047282   -2.009759 C.3       1 <1>        -0.041633 
     20 C           5.273211    0.790589   -1.851213 C.3       1 <1>        -0.044040 
     21 C           5.623258    0.839831    0.684892 C.3       1 <1>        -0.044040 
     22 C          -3.473457    2.805790    0.207118 C.2       1 <1>         0.010297 
     23 C          -4.422663    3.861363   -0.193913 C.2       1 <1>         0.284026 
     24 H          -0.342636   -2.500332    1.935741 H         1 <1>         0.035641 
     25 H          -2.029903   -2.024680    1.729690 H         1 <1>         0.035641 
     26 H           2.725703    2.641355    1.238494 H         1 <1>         0.035640 
     27 H           3.138866    1.014585    1.821277 H         1 <1>         0.035640 
     28 H          -2.595729    0.085286    0.525685 H         1 <1>         0.062704 
     29 H           0.502260    3.163144    0.294013 H         1 <1>         0.062704 
     30 H          -0.024568   -2.859482   -0.521114 H         1 <1>         0.057551 
     31 H           2.767797    1.500885   -1.219488 H         1 <1>         0.057472 
     32 H          -1.760159    3.758231   -0.519200 H         1 <1>         0.062525 
     33 H           2.486619   -1.180458    0.805709 H         1 <1>         0.217336 
     34 H          -3.749407   -2.158954   -0.001410 H         1 <1>         0.060379 
     35 H          -4.207180   -3.639887   -0.874425 H         1 <1>         0.060379 
     36 H          -0.868879   -4.128618   -2.334971 H         1 <1>         0.027507 
     37 H          -2.320129   -5.065812   -1.903949 H         1 <1>         0.027507 
     38 H          -2.479678   -3.522210   -2.796031 H         1 <1>         0.027507 
     39 H           4.528399    0.838325   -2.660099 H         1 <1>         0.027427 
     40 H           6.040702    1.554515   -2.047032 H         1 <1>         0.027427 
     41 H           5.745999   -0.202698   -1.882115 H         1 <1>         0.027427 
     42 H           5.421107    1.559518    1.491226 H         1 <1>         0.027427 
     43 H           5.526994   -0.182963    1.077653 H         1 <1>         0.027427 
     44 H           6.666553    0.992349    0.368752 H         1 <1>         0.027427 
     45 H          -3.924043    1.959072    0.718192 H         1 <1>         0.067729 
     46 H          -4.411931   -3.940251    1.480004 H         1 <1>         0.209834 
     47 H          -6.240955    4.453205   -0.217252 H         1 <1>         0.220537 
@<TRIPOS>BOND
     1    7    1 1    
     2    1   33 1    
     3   18    2 1    
     4    2   46 1    
     5   23    3 1    
     6    3   47 1    
     7   23    4 2    
     8    5    7 1    
     9    5    8 1    
    10   10    5 2    
    11    6    7 2    
    12    6    9 1    
    13   12    6 1    
    14    8   13 1    
    15    8   24 1    
    16    8   25 1    
    17    9   14 1    
    18    9   26 1    
    19    9   27 1    
    20   11   10 1    
    21   10   28 1    
    22   11   12 2    
    23   17   11 1    
    24   12   29 1    
    25   13   15 2    
    26   13   30 1    
    27   14   16 2    
    28   14   31 1    
    29   15   18 1    
    30   15   19 1    
    31   16   20 1    
    32   16   21 1    
    33   22   17 2    
    34   17   32 1    
    35   18   34 1    
    36   18   35 1    
    37   19   36 1    
    38   19   37 1    
    39   19   38 1    
    40   20   39 1    
    41   20   40 1    
    42   20   41 1    
    43   21   42 1    
    44   21   43 1    
    45   21   44 1    
    46   22   23 1    
    47   22   45 1    
@<TRIPOS>SUBSTRUCTURE
     1 ****        1 TEMP              0 ****  ****    0 ROOT 
@<TRIPOS>NORMAL
@<TRIPOS>FF_PBC
FORCE_FIELD_SETUP_FEATURE Force Field Setup information
v1.0  0 0.000000 0.000000 0.000000 0.000000 0.000000 0.000000 NONE 0 0 0 0 1 0 0 0 0 0 0 0 0
