@<TRIPOS>MOLECULE
MOL004817
   60    62     1     1     0
SMALL
GASTEIGER


@<TRIPOS>ATOM
      1 C          -3.796849   -1.717062   -0.241666 C.ar      1 <1>         0.084214 
      2 C          -3.278775   -0.323206   -0.317475 C.ar      1 <1>         0.016824 
      3 C          -1.897401   -0.110228   -0.518633 C.ar      1 <1>         0.091803 
      4 C          -0.953800   -1.254054   -0.543014 C.ar      1 <1>         0.082795 
      5 C          -1.426854   -2.542214   -0.321427 C.ar      1 <1>         0.098084 
      6 C          -2.883931   -2.786992   -0.212133 C.ar      1 <1>        -0.000030 
      7 C           0.535285   -1.127907   -0.773736 C.2       1 <1>         0.200663 
      8 C           1.397384   -2.249885   -0.340007 C.2       1 <1>         0.055114 
      9 C           0.792379   -3.424623   -0.090054 C.2       1 <1>         0.058337 
     10 O          -0.536040   -3.608920   -0.203032 O.3       1 <1>        -0.315267 
     11 O           0.983545   -0.139448   -1.322998 O.2       1 <1>        -0.286388 
     12 C           2.906846   -2.105163   -0.179647 C.ar      1 <1>         0.017863 
     13 C           3.782703   -3.294979   -0.358941 C.ar      1 <1>        -0.048941 
     14 C           5.159502   -3.215348   -0.158108 C.ar      1 <1>        -0.030923 
     15 C           5.794442   -1.918894    0.151688 C.ar      1 <1>         0.078519 
     16 C           5.013938   -0.757430    0.269108 C.ar      1 <1>         0.016309 
     17 C           3.528993   -0.873809    0.159649 C.ar      1 <1>         0.086342 
     18 C           5.781036    0.566563    0.491753 C.3       1 <1>        -0.004343 
     19 O           2.750838    0.248614    0.411724 O.3       1 <1>        -0.358859 
     20 C          -4.174102    0.925049   -0.171130 C.3       1 <1>        -0.004331 
     21 O          -1.414460    1.188813   -0.657154 O.3       1 <1>        -0.358673 
     22 C          -5.566880    0.772377    0.407651 C.2       1 <1>        -0.080815 
     23 C          -6.571052    1.642882    0.207466 C.2       1 <1>        -0.079306 
     24 C          -7.956276    1.408743    0.778369 C.3       1 <1>        -0.044040 
     25 C          -6.402778    2.925969   -0.579696 C.3       1 <1>        -0.044040 
     26 C           5.033824    1.811194    0.916135 C.2       1 <1>        -0.080815 
     27 C           5.316417    3.062724    0.512280 C.2       1 <1>        -0.079306 
     28 C           4.466333    4.234955    0.950586 C.3       1 <1>        -0.044040 
     29 C           6.485499    3.424174   -0.382500 C.3       1 <1>        -0.044040 
     30 O           7.177732   -1.863343    0.308881 O.3       1 <1>        -0.359468 
     31 O          -5.181317   -1.929790   -0.210573 O.3       1 <1>        -0.347465 
     32 C          -5.799350   -3.226895   -0.212452 C.3       1 <1>         0.043040 
     33 H          -3.216643   -3.812373   -0.127664 H         1 <1>         0.066964 
     34 H           1.319510   -4.318820    0.226372 H         1 <1>         0.089750 
     35 H           3.379441   -4.256298   -0.649574 H         1 <1>         0.062523 
     36 H           5.781215   -4.101492   -0.244409 H         1 <1>         0.064349 
     37 H           6.285103    0.746207   -0.468581 H         1 <1>         0.035721 
     38 H           6.550081    0.406606    1.263545 H         1 <1>         0.035721 
     39 H           2.062027    0.069715    1.042074 H         1 <1>         0.217351 
     40 H          -4.203713    1.412422   -1.156088 H         1 <1>         0.035721 
     41 H          -3.659882    1.595743    0.533372 H         1 <1>         0.035721 
     42 H          -1.344205    1.423666   -1.575991 H         1 <1>         0.217354 
     43 H          -5.761183   -0.090130    1.043548 H         1 <1>         0.057473 
     44 H          -8.075198    0.407097    1.219287 H         1 <1>         0.027427 
     45 H          -8.151097    2.155046    1.563960 H         1 <1>         0.027427 
     46 H          -8.717249    1.524946   -0.008979 H         1 <1>         0.027427 
     47 H          -5.395854    3.347901   -0.443427 H         1 <1>         0.027427 
     48 H          -6.581050    2.741464   -1.650082 H         1 <1>         0.027427 
     49 H          -7.118502    3.686706   -0.230450 H         1 <1>         0.027427 
     50 H           4.216900    1.663845    1.620461 H         1 <1>         0.057473 
     51 H           3.527364    3.923531    1.429125 H         1 <1>         0.027427 
     52 H           5.034467    4.849988    1.664455 H         1 <1>         0.027427 
     53 H           4.211922    4.854851    0.078687 H         1 <1>         0.027427 
     54 H           7.360400    2.779219   -0.219667 H         1 <1>         0.027427 
     55 H           6.187252    3.372263   -1.439032 H         1 <1>         0.027427 
     56 H           6.813888    4.452636   -0.171905 H         1 <1>         0.027427 
     57 H           7.589588   -1.453686   -0.442094 H         1 <1>         0.217326 
     58 H          -6.887297   -3.069002   -0.162800 H         1 <1>         0.052870 
     59 H          -5.498537   -3.813521    0.669357 H         1 <1>         0.052870 
     60 H          -5.573764   -3.786033   -1.134750 H         1 <1>         0.052870 
@<TRIPOS>BOND
     1    1    2 1    
     2    1    6 2    
     3    1   31 1    
     4    2    3 2    
     5    2   20 1    
     6    3    4 1    
     7    3   21 1    
     8    4    5 2    
     9    4    7 1    
    10    5    6 1    
    11    5   10 1    
    12    6   33 1    
    13    7    8 1    
    14    7   11 2    
    15    8    9 2    
    16    8   12 1    
    17    9   10 1    
    18    9   34 1    
    19   12   13 1    
    20   12   17 2    
    21   13   14 2    
    22   13   35 1    
    23   14   15 1    
    24   14   36 1    
    25   15   16 2    
    26   15   30 1    
    27   16   17 1    
    28   16   18 1    
    29   17   19 1    
    30   18   26 1    
    31   18   37 1    
    32   18   38 1    
    33   19   39 1    
    34   20   22 1    
    35   20   40 1    
    36   20   41 1    
    37   21   42 1    
    38   22   23 2    
    39   22   43 1    
    40   23   24 1    
    41   23   25 1    
    42   24   44 1    
    43   24   45 1    
    44   24   46 1    
    45   25   47 1    
    46   25   48 1    
    47   25   49 1    
    48   26   27 2    
    49   26   50 1    
    50   27   28 1    
    51   27   29 1    
    52   28   51 1    
    53   28   52 1    
    54   28   53 1    
    55   29   54 1    
    56   29   55 1    
    57   29   56 1    
    58   30   57 1    
    59   31   32 1    
    60   32   58 1    
    61   32   59 1    
    62   32   60 1    
@<TRIPOS>SUBSTRUCTURE
     1 ****        1 TEMP              0 ****  ****    0 ROOT 
@<TRIPOS>NORMAL
@<TRIPOS>FF_PBC
FORCE_FIELD_SETUP_FEATURE Force Field Setup information
v1.0  0 0.000000 0.000000 0.000000 0.000000 0.000000 0.000000 NONE 0 0 0 0 1 0 0 0 0 0 0 0 0
