@<TRIPOS>MOLECULE
MOL001506
   80    79     1     1     0
SMALL
GASTEIGER


@<TRIPOS>ATOM
      1 C           3.063273    0.056959    0.672453 C.3       1 <1>        -0.028563 
      2 C          -5.565386    1.417077   -0.069611 C.3       1 <1>        -0.028563 
      3 C          -1.893894    0.059420   -0.029513 C.3       1 <1>        -0.031074 
      4 C          -0.613145    0.848439   -0.423409 C.3       1 <1>        -0.031074 
      5 C          -6.999587    0.821910   -0.161818 C.3       1 <1>        -0.030839 
      6 C           4.501862    0.517783    0.292943 C.3       1 <1>        -0.030839 
      7 C          -4.397250    0.460319    0.103478 C.2       1 <1>        -0.076232 
      8 C           1.878790    0.771801    0.035721 C.2       1 <1>        -0.076232 
      9 C           0.659264    0.209562    0.092384 C.2       1 <1>        -0.084726 
     10 C          -3.159039    0.864619   -0.229913 C.2       1 <1>        -0.084726 
     11 C           5.609808    2.812753    0.145078 C.2       1 <1>        -0.076231 
     12 C          -9.376253    1.711447   -0.162460 C.2       1 <1>        -0.076231 
     13 C           5.606319    4.250392    0.637243 C.3       1 <1>        -0.028563 
     14 C         -10.395682    2.839623   -0.196082 C.3       1 <1>        -0.028563 
     15 C          -8.047984    1.912244   -0.234752 C.2       1 <1>        -0.084718 
     16 C           4.759592    1.945308    0.718902 C.2       1 <1>        -0.084718 
     17 C           6.635024    5.238041    0.020161 C.3       1 <1>        -0.030848 
     18 C          -9.870704    4.303054   -0.147698 C.3       1 <1>        -0.030848 
     19 C          -4.701984   -0.907237    0.682744 C.3       1 <1>        -0.043778 
     20 C           2.127026    2.118071   -0.621838 C.3       1 <1>        -0.043778 
     21 C           6.557125    2.452361   -0.983131 C.3       1 <1>        -0.043778 
     22 C          -9.984090    0.328084   -0.036520 C.3       1 <1>        -0.043778 
     23 C         -10.987557    5.321772   -0.085390 C.2       1 <1>        -0.084989 
     24 C           6.371855    6.667846    0.438391 C.2       1 <1>        -0.084989 
     25 C         -10.799562    6.651325   -0.031749 C.2       1 <1>        -0.079608 
     26 C           7.256039    7.670919    0.297844 C.2       1 <1>        -0.079608 
     27 C         -11.970773    7.609358    0.034219 C.3       1 <1>        -0.044049 
     28 C          -9.437084    7.310722   -0.031824 C.3       1 <1>        -0.044049 
     29 C           6.922058    9.075461    0.749489 C.3       1 <1>        -0.044049 
     30 C           8.627203    7.494624   -0.312690 C.3       1 <1>        -0.044049 
     31 H           2.992776   -1.019144    0.443139 H         1 <1>         0.031285 
     32 H           2.949857    0.163480    1.763032 H         1 <1>         0.031285 
     33 H          -5.406845    2.033513   -0.970552 H         1 <1>         0.031285 
     34 H          -5.537942    2.082867    0.808444 H         1 <1>         0.031285 
     35 H          -0.678964    1.853800    0.023667 H         1 <1>         0.031036 
     36 H          -0.576978    0.944281   -1.520723 H         1 <1>         0.031036 
     37 H          -1.934255   -0.876815   -0.609474 H         1 <1>         0.031036 
     38 H          -1.829215   -0.183506    1.043569 H         1 <1>         0.031036 
     39 H           5.243090   -0.119264    0.803123 H         1 <1>         0.031044 
     40 H           4.615179    0.376993   -0.792531 H         1 <1>         0.031044 
     41 H          -7.198247    0.219566    0.738131 H         1 <1>         0.031044 
     42 H          -7.067099    0.182550   -1.056597 H         1 <1>         0.031044 
     43 H           0.565392   -0.773015    0.559669 H         1 <1>         0.057163 
     44 H          -3.044310    1.861079   -0.661208 H         1 <1>         0.057163 
     45 H           4.598826    4.631444    0.401569 H         1 <1>         0.031285 
     46 H           5.729689    4.263837    1.733053 H         1 <1>         0.031285 
     47 H         -11.004585    2.723928   -1.107736 H         1 <1>         0.031285 
     48 H         -11.056634    2.703656    0.675954 H         1 <1>         0.031285 
     49 H           4.180600    2.302236    1.572877 H         1 <1>         0.057163 
     50 H          -7.661454    2.923308   -0.349143 H         1 <1>         0.057163 
     51 H           7.644875    4.937760    0.341075 H         1 <1>         0.031044 
     52 H           6.568806    5.206564   -1.078424 H         1 <1>         0.031044 
     53 H          -9.243180    4.422043    0.749975 H         1 <1>         0.031044 
     54 H          -9.276192    4.502275   -1.053151 H         1 <1>         0.031044 
     55 H           2.304983    2.878055    0.150945 H         1 <1>         0.027436 
     56 H           2.991247    2.077396   -1.298629 H         1 <1>         0.027436 
     57 H           1.284677    2.468767   -1.231076 H         1 <1>         0.027436 
     58 H          -3.818675   -1.548235    0.799533 H         1 <1>         0.027436 
     59 H          -5.157881   -0.790369    1.676908 H         1 <1>         0.027436 
     60 H          -5.401294   -1.442487    0.023562 H         1 <1>         0.027436 
     61 H           7.570680    2.825492   -0.776371 H         1 <1>         0.027436 
     62 H           6.662628    1.368557   -1.125016 H         1 <1>         0.027436 
     63 H           6.194995    2.893431   -1.924644 H         1 <1>         0.027436 
     64 H          -9.275596   -0.498109   -0.178398 H         1 <1>         0.027436 
     65 H         -10.774539    0.209573   -0.792969 H         1 <1>         0.027436 
     66 H         -10.434669    0.224949    0.961979 H         1 <1>         0.027436 
     67 H         -12.007700    4.937165   -0.084327 H         1 <1>         0.057155 
     68 H           5.398056    6.892234    0.873959 H         1 <1>         0.057155 
     69 H         -12.947175    7.102590    0.036413 H         1 <1>         0.027427 
     70 H         -11.898460    8.211566    0.952148 H         1 <1>         0.027427 
     71 H         -11.939756    8.285692   -0.832904 H         1 <1>         0.027427 
     72 H          -8.590610    6.611349   -0.068436 H         1 <1>         0.027427 
     73 H          -9.359435    7.974732   -0.905955 H         1 <1>         0.027427 
     74 H          -9.328821    7.917506    0.879853 H         1 <1>         0.027427 
     75 H           7.762293    9.488796    1.327084 H         1 <1>         0.027427 
     76 H           6.760582    9.702856   -0.140059 H         1 <1>         0.027427 
     77 H           6.020024    9.125446    1.378078 H         1 <1>         0.027427 
     78 H           8.885580    8.379716   -0.912645 H         1 <1>         0.027427 
     79 H           9.365682    7.393004    0.496838 H         1 <1>         0.027427 
     80 H           8.705275    6.620453   -0.975369 H         1 <1>         0.027427 
@<TRIPOS>BOND
     1    1    6 1    
     2    8    1 1    
     3    1   31 1    
     4    1   32 1    
     5    5    2 1    
     6    2    7 1    
     7    2   33 1    
     8    2   34 1    
     9    3    4 1    
    10   10    3 1    
    11    3   37 1    
    12    3   38 1    
    13    4    9 1    
    14    4   35 1    
    15    4   36 1    
    16   15    5 1    
    17    5   41 1    
    18    5   42 1    
    19    6   16 1    
    20    6   39 1    
    21    6   40 1    
    22    7   10 2    
    23    7   19 1    
    24    9    8 2    
    25    8   20 1    
    26    9   43 1    
    27   10   44 1    
    28   11   13 1    
    29   16   11 2    
    30   11   21 1    
    31   12   14 1    
    32   12   15 2    
    33   12   22 1    
    34   13   17 1    
    35   13   45 1    
    36   13   46 1    
    37   14   18 1    
    38   14   47 1    
    39   14   48 1    
    40   15   50 1    
    41   16   49 1    
    42   17   24 1    
    43   17   51 1    
    44   17   52 1    
    45   18   23 1    
    46   18   53 1    
    47   18   54 1    
    48   19   58 1    
    49   19   59 1    
    50   19   60 1    
    51   20   55 1    
    52   20   56 1    
    53   20   57 1    
    54   21   61 1    
    55   21   62 1    
    56   21   63 1    
    57   22   64 1    
    58   22   65 1    
    59   22   66 1    
    60   23   25 2    
    61   23   67 1    
    62   24   26 2    
    63   24   68 1    
    64   25   27 1    
    65   25   28 1    
    66   26   29 1    
    67   26   30 1    
    68   27   69 1    
    69   27   70 1    
    70   27   71 1    
    71   28   72 1    
    72   28   73 1    
    73   28   74 1    
    74   29   75 1    
    75   29   76 1    
    76   29   77 1    
    77   30   78 1    
    78   30   79 1    
    79   30   80 1    
@<TRIPOS>SUBSTRUCTURE
     1 ****       12 TEMP              0 ****  ****    0 ROOT 
@<TRIPOS>NORMAL
@<TRIPOS>FF_PBC
FORCE_FIELD_SETUP_FEATURE Force Field Setup information
v1.0  0 0.000000 0.000000 0.000000 0.000000 0.000000 0.000000 NONE 0 0 0 0 1 0 0 0 0 0 0 0 0
