@<TRIPOS>MOLECULE
MOL000926
   39    38     1     1     0
SMALL
GASTEIGER


@<TRIPOS>ATOM
      1 C           1.377271    3.460903   -0.597156 C.2       1 <1>        -0.098452 
      2 C           1.607527    2.187669   -0.943135 C.2       1 <1>        -0.066221 
      3 C           2.772093    1.364336   -0.537101 C.2       1 <1>        -0.054697 
      4 C           2.602891   -0.140779   -0.547391 C.3       1 <1>        -0.024807 
      5 C           1.857841   -0.569020    0.742020 C.3       1 <1>        -0.030545 
      6 C           1.502405   -2.037151    0.687359 C.2       1 <1>        -0.084708 
      7 C           0.343662   -2.545961    0.233994 C.2       1 <1>        -0.076231 
      8 C          -0.783456   -1.702358   -0.333350 C.3       1 <1>        -0.028563 
      9 C          -1.792288   -1.280924    0.766578 C.3       1 <1>        -0.030848 
     10 C          -2.940882   -0.519298    0.142027 C.2       1 <1>        -0.084989 
     11 C          -3.075005    0.817220    0.123007 C.2       1 <1>        -0.079608 
     12 C          -4.283378    1.479299   -0.503643 C.3       1 <1>        -0.044049 
     13 C           3.944758    1.902333   -0.171912 C.2       1 <1>        -0.095504 
     14 C          -2.047935    1.755970    0.715957 C.3       1 <1>        -0.044049 
     15 C           0.090855   -4.039709    0.256703 C.3       1 <1>        -0.043778 
     16 H           0.484483    3.975332   -0.954864 H         1 <1>         0.053489 
     17 H           2.045214    4.029007    0.047069 H         1 <1>         0.053489 
     18 H           0.858855    1.708786   -1.576382 H         1 <1>         0.061433 
     19 H           2.020315   -0.437870   -1.433246 H         1 <1>         0.031595 
     20 H           3.568310   -0.669218   -0.606980 H         1 <1>         0.031595 
     21 H           2.505021   -0.381206    1.614595 H         1 <1>         0.031053 
     22 H           0.961795    0.049692    0.881198 H         1 <1>         0.031053 
     23 H           2.275203   -2.716025    1.050713 H         1 <1>         0.057163 
     24 H          -1.316734   -2.281579   -1.104321 H         1 <1>         0.031285 
     25 H          -0.399523   -0.803106   -0.837071 H         1 <1>         0.031285 
     26 H          -1.284588   -0.694743    1.546186 H         1 <1>         0.031044 
     27 H          -2.200807   -2.177068    1.260064 H         1 <1>         0.031044 
     28 H          -3.709596   -1.134767   -0.327661 H         1 <1>         0.057155 
     29 H          -5.032025    0.757911   -0.864745 H         1 <1>         0.027427 
     30 H          -4.768488    2.129444    0.240134 H         1 <1>         0.027427 
     31 H          -3.962160    2.094694   -1.357426 H         1 <1>         0.027427 
     32 H           4.783184    1.277503    0.134470 H         1 <1>         0.053749 
     33 H           4.124381    2.975330   -0.165899 H         1 <1>         0.053749 
     34 H          -2.188327    2.786559    0.355944 H         1 <1>         0.027427 
     35 H          -2.141496    1.756784    1.812144 H         1 <1>         0.027427 
     36 H          -1.030036    1.451372    0.437878 H         1 <1>         0.027427 
     37 H          -0.002506   -4.409846   -0.775368 H         1 <1>         0.027436 
     38 H          -0.845656   -4.252691    0.792635 H         1 <1>         0.027436 
     39 H           0.895613   -4.606685    0.748543 H         1 <1>         0.027436 
@<TRIPOS>BOND
     1    1    2 2    
     2    1   16 1    
     3    1   17 1    
     4    2    3 1    
     5    2   18 1    
     6    3    4 1    
     7    3   13 2    
     8    4    5 1    
     9    4   19 1    
    10    4   20 1    
    11    5    6 1    
    12    5   21 1    
    13    5   22 1    
    14    6    7 2    
    15    6   23 1    
    16    7    8 1    
    17    7   15 1    
    18    8    9 1    
    19    8   24 1    
    20    8   25 1    
    21    9   10 1    
    22    9   26 1    
    23    9   27 1    
    24   10   11 2    
    25   10   28 1    
    26   11   12 1    
    27   11   14 1    
    28   12   29 1    
    29   12   30 1    
    30   12   31 1    
    31   13   32 1    
    32   13   33 1    
    33   14   34 1    
    34   14   35 1    
    35   14   36 1    
    36   15   37 1    
    37   15   38 1    
    38   15   39 1    
@<TRIPOS>SUBSTRUCTURE
     1 ****        1 TEMP              0 ****  ****    0 ROOT 
@<TRIPOS>NORMAL
@<TRIPOS>FF_PBC
FORCE_FIELD_SETUP_FEATURE Force Field Setup information
v1.0  0 0.000000 0.000000 0.000000 0.000000 0.000000 0.000000 NONE 0 0 0 0 1 0 0 0 0 0 0 0 0
