@<TRIPOS>MOLECULE
MOL001936
   25    24     1     1     0
SMALL
GASTEIGER


@<TRIPOS>ATOM
      1 C           0.030493    0.011239   -0.000137 C.3       1 <1>        -0.034690 
      2 C           1.319917   -0.776985    0.000065 C.2       1 <1>        -0.087939 
      3 C           0.286674    1.542714    0.000054 C.3       1 <1>        -0.047546 
      4 C           1.363873   -2.116999    0.000081 C.2       1 <1>        -0.088191 
      5 C          -1.046443    2.339981   -0.000118 C.3       1 <1>        -0.029441 
      6 C           0.129460   -2.988673   -0.000105 C.3       1 <1>        -0.037608 
      7 C          -0.798487    3.869444    0.000103 C.3       1 <1>         0.044215 
      8 C           0.487358   -4.497299    0.000042 C.3       1 <1>        -0.061821 
      9 O          -2.074655    4.534009   -0.000074 O.3       1 <1>        -0.395006 
     10 H          -0.553754   -0.254734   -0.895237 H         1 <1>         0.030733 
     11 H          -0.554123   -0.254876    0.894678 H         1 <1>         0.030733 
     12 H           2.265691   -0.231438    0.000203 H         1 <1>         0.056896 
     13 H           0.873201    1.811385    0.894380 H         1 <1>         0.026892 
     14 H           0.873548    1.811563   -0.893988 H         1 <1>         0.026892 
     15 H           2.342941   -2.600270    0.000235 H         1 <1>         0.056887 
     16 H          -1.637558    2.078257   -0.893106 H         1 <1>         0.028733 
     17 H          -1.637917    2.078056    0.892571 H         1 <1>         0.028733 
     18 H          -0.473740   -2.767749   -0.895352 H         1 <1>         0.030466 
     19 H          -0.474066   -2.767677    0.894902 H         1 <1>         0.030466 
     20 H          -0.221596    4.151332    0.897795 H         1 <1>         0.055696 
     21 H          -0.221229    4.151538   -0.897289 H         1 <1>         0.055696 
     22 H          -0.430439   -5.106572   -0.000087 H         1 <1>         0.023270 
     23 H           1.076283   -4.750007    0.895825 H         1 <1>         0.023270 
     24 H           1.076614   -4.750119   -0.895491 H         1 <1>         0.023270 
     25 H          -2.002244    5.483979    0.000051 H         1 <1>         0.209395 
@<TRIPOS>BOND
     1    1    2 1    
     2    1    3 1    
     3    1   10 1    
     4    1   11 1    
     5    2    4 2    
     6    2   12 1    
     7    3    5 1    
     8    3   13 1    
     9    3   14 1    
    10    4    6 1    
    11    4   15 1    
    12    5    7 1    
    13    5   16 1    
    14    5   17 1    
    15    6    8 1    
    16    6   18 1    
    17    6   19 1    
    18    7    9 1    
    19    7   20 1    
    20    7   21 1    
    21    8   22 1    
    22    8   23 1    
    23    8   24 1    
    24    9   25 1    
@<TRIPOS>SUBSTRUCTURE
     1 ****        1 TEMP              0 ****  ****    0 ROOT 
@<TRIPOS>NORMAL
@<TRIPOS>FF_PBC
FORCE_FIELD_SETUP_FEATURE Force Field Setup information
v1.0  0 0.000000 0.000000 0.000000 0.000000 0.000000 0.000000 NONE 0 0 0 0 1 0 0 0 0 0 0 0 0
