@<TRIPOS>MOLECULE
MOL001789
   31    32     1     1     0
SMALL
GASTEIGER


@<TRIPOS>ATOM
      1 C           1.161408   -1.951038    0.850367 C.ar      1 <1>         0.051478 
      2 C           2.040895   -0.727009    0.711125 C.2       1 <1>         0.188543 
      3 C           1.679256   -3.279940    0.440728 C.ar      1 <1>         0.085798 
      4 C          -0.154061   -1.839984    1.378833 C.ar      1 <1>        -0.046025 
      5 C           1.497317    0.591910    0.329656 C.2       1 <1>        -0.013708 
      6 O           3.238427   -0.817929    0.926947 O.2       1 <1>        -0.287193 
      7 C           0.851641   -4.428925    0.579357 C.ar      1 <1>        -0.001470 
      8 O           2.971433   -3.382643   -0.081993 O.3       1 <1>        -0.359040 
      9 C          -1.013527   -3.039629    1.512495 C.ar      1 <1>        -0.031105 
     10 C           0.380072    0.760920   -0.391656 C.2       1 <1>        -0.050956 
     11 C          -0.521361   -4.313489    1.122135 C.ar      1 <1>         0.075057 
     12 C          -0.191112    2.107696   -0.788164 C.ar      1 <1>        -0.024759 
     13 O          -1.305762   -5.463855    1.237417 O.3       1 <1>        -0.359749 
     14 C          -1.632012    2.178058   -1.138018 C.ar      1 <1>        -0.052161 
     15 C           0.586737    3.299902   -0.847149 C.ar      1 <1>        -0.052161 
     16 C          -2.224212    3.400490   -1.511827 C.ar      1 <1>        -0.031383 
     17 C          -0.038570    4.587353   -1.234364 C.ar      1 <1>        -0.031383 
     18 C          -1.419777    4.642004   -1.562578 C.ar      1 <1>         0.072617 
     19 O          -2.036459    5.840134   -1.931880 O.3       1 <1>        -0.359832 
     20 H          -0.538281   -0.875908    1.695377 H         1 <1>         0.062620 
     21 H           2.080670    1.440637    0.679882 H         1 <1>         0.065602 
     22 H           1.212807   -5.408195    0.286654 H         1 <1>         0.066921 
     23 H           3.274177   -4.273213   -0.217957 H         1 <1>         0.217341 
     24 H          -2.016893   -2.932516    1.910734 H         1 <1>         0.064341 
     25 H          -0.172732   -0.116329   -0.726903 H         1 <1>         0.062459 
     26 H          -2.173185   -5.313202    1.596016 H         1 <1>         0.217315 
     27 H          -2.240575    1.280141   -1.105826 H         1 <1>         0.062423 
     28 H           1.645249    3.291722   -0.618724 H         1 <1>         0.062423 
     29 H          -3.277910    3.442003   -1.765873 H         1 <1>         0.064338 
     30 H           0.570505    5.484462   -1.264171 H         1 <1>         0.064338 
     31 H          -1.452490    6.589725   -1.951356 H         1 <1>         0.217313 
@<TRIPOS>BOND
     1    1    2 1    
     2    1    3 1    
     3    1    4 2    
     4    2    5 1    
     5    2    6 2    
     6    3    7 2    
     7    3    8 1    
     8    4    9 1    
     9    4   20 1    
    10    5   10 2    
    11    5   21 1    
    12    7   11 1    
    13    7   22 1    
    14    8   23 1    
    15    9   11 2    
    16    9   24 1    
    17   10   12 1    
    18   10   25 1    
    19   11   13 1    
    20   12   14 1    
    21   12   15 2    
    22   13   26 1    
    23   14   16 2    
    24   14   27 1    
    25   15   17 1    
    26   15   28 1    
    27   16   18 1    
    28   16   29 1    
    29   17   18 2    
    30   17   30 1    
    31   18   19 1    
    32   19   31 1    
@<TRIPOS>SUBSTRUCTURE
     1 ****        1 TEMP              0 ****  ****    0 ROOT 
@<TRIPOS>NORMAL
@<TRIPOS>FF_PBC
FORCE_FIELD_SETUP_FEATURE Force Field Setup information
v1.0  0 0.000000 0.000000 0.000000 0.000000 0.000000 0.000000 NONE 0 0 0 0 1 0 0 0 0 0 0 0 0
