@<TRIPOS>MOLECULE
MOL011400
  128   133     1     1     0
SMALL
GASTEIGER


@<TRIPOS>ATOM
      1 O          -1.929169   -1.380393   -1.933184 O.3       1 <1>        -0.345090 
      2 O           0.392231    4.937739    2.372248 O.3       1 <1>        -0.391475 
      3 O          -5.924926   -0.613151    1.491736 O.3       1 <1>        -0.391246 
      4 O           2.985209    5.463970    2.357426 O.3       1 <1>        -0.388552 
      5 O           0.154528   -1.397525   -3.119198 O.3       1 <1>        -0.340513 
      6 O          -0.156825   -4.292520   -3.465967 O.3       1 <1>        -0.337759 
      7 O          -3.080816   -2.238572   -4.489010 O.3       1 <1>        -0.386391 
      8 O           0.363290   -2.867131   -5.739401 O.3       1 <1>        -0.386488 
      9 O          -0.266625   -6.208331   -2.120915 O.3       1 <1>        -0.340519 
     10 O          -1.551562    0.760842   -5.719284 O.3       1 <1>        -0.392366 
     11 O          -0.106234   -7.833121   -4.708740 O.3       1 <1>        -0.384104 
     12 O           2.470205   -5.248374   -4.270973 O.3       1 <1>        -0.386401 
     13 O           1.495113   -8.463140   -2.601706 O.3       1 <1>        -0.386488 
     14 O           2.955739   -4.946224   -0.603005 O.3       1 <1>        -0.392366 
     15 C          -0.105952    1.045229    0.501329 C.3       1 <1>        -0.020570 
     16 C           1.194687    1.908477    0.150280 C.3       1 <1>        -0.020803 
     17 C          -1.368187    1.987832    0.634039 C.3       1 <1>        -0.026947 
     18 C          -2.771625    1.249218    0.800879 C.3       1 <1>        -0.022817 
     19 C           1.390219    2.919676    1.322116 C.3       1 <1>        -0.003644 
     20 C          -2.963713    0.233951   -0.396984 C.3       1 <1>        -0.001445 
     21 C          -0.393481    0.075938   -0.680174 C.3       1 <1>        -0.020001 
     22 C          -1.096612    3.218820    1.574706 C.3       1 <1>        -0.022710 
     23 C           2.896126    3.304626    1.334587 C.3       1 <1>        -0.006683 
     24 C           0.249619    3.968277    1.322621 C.3       1 <1>         0.059199 
     25 C          -1.737517   -0.711484   -0.654317 C.3       1 <1>         0.066190 
     26 C           2.590191    1.173969    0.112224 C.3       1 <1>        -0.046421 
     27 C          -4.390652   -0.455686   -0.542786 C.3       1 <1>        -0.003243 
     28 C           3.513246    1.889133    1.139560 C.3       1 <1>        -0.046740 
     29 C          -3.934850    2.288286    0.635917 C.3       1 <1>        -0.044647 
     30 C           0.112957    0.170805    1.794703 C.3       1 <1>        -0.058701 
     31 C           1.119337    2.647738   -1.248858 C.3       1 <1>        -0.058709 
     32 C          -2.937947    0.603679    2.216450 C.3       1 <1>        -0.058936 
     33 C          -5.513890    0.175924    0.355958 C.3       1 <1>         0.060719 
     34 C          -5.380391    1.697298    0.654920 C.3       1 <1>        -0.025829 
     35 C           3.460859    4.116476    2.558801 C.3       1 <1>         0.066753 
     36 C          -4.892162   -0.305987   -2.020784 C.3       1 <1>        -0.057108 
     37 C          -4.358151   -1.990887   -0.243653 C.3       1 <1>        -0.057108 
     38 C           2.987112    3.584520    3.955406 C.3       1 <1>        -0.020552 
     39 C           5.016829    4.128611    2.470957 C.3       1 <1>        -0.035798 
     40 C          -0.818447   -2.182258   -2.401162 C.3       1 <1>         0.188584 
     41 C           3.606739    4.274924    5.205093 C.3       1 <1>        -0.031929 
     42 C          -1.283383   -3.411496   -3.220689 C.3       1 <1>         0.140625 
     43 C          -1.842400   -2.964007   -4.595120 C.3       1 <1>         0.114429 
     44 C          -0.280578   -0.935311   -4.419427 C.3       1 <1>         0.113005 
     45 C           3.013025    3.726274    6.485368 C.2       1 <1>        -0.085195 
     46 C          -0.783795   -2.093874   -5.327350 C.3       1 <1>         0.111906 
     47 C          -1.251349    0.280484   -4.393816 C.3       1 <1>         0.073015 
     48 C           3.062419    4.332768    7.681075 C.2       1 <1>        -0.079616 
     49 C          -0.461428   -5.702852   -3.455767 C.3       1 <1>         0.188544 
     50 C           0.367659   -6.480668   -4.517732 C.3       1 <1>         0.134126 
     51 C           2.403543    3.719661    8.899527 C.3       1 <1>        -0.044050 
     52 C           3.758839    5.654217    7.930402 C.3       1 <1>        -0.044050 
     53 C           1.860402   -6.544932   -4.122086 C.3       1 <1>         0.114061 
     54 C           1.119082   -6.256962   -1.697188 C.3       1 <1>         0.113005 
     55 C           1.974875   -7.104247   -2.679221 C.3       1 <1>         0.111896 
     56 C           1.710049   -4.865417   -1.322734 C.3       1 <1>         0.073015 
     57 H          -1.489373    2.477796   -0.336339 H         1 <1>         0.031237 
     58 H           1.296269    2.412802    2.281852 H         1 <1>         0.033467 
     59 H          -2.888435    0.884921   -1.281991 H         1 <1>         0.033712 
     60 H           0.473650   -0.592442   -0.762411 H         1 <1>         0.029575 
     61 H          -0.474248    0.641439   -1.607792 H         1 <1>         0.029575 
     62 H          -1.868137    3.994819    1.460490 H         1 <1>         0.029314 
     63 H          -1.099989    2.914912    2.629526 H         1 <1>         0.029314 
     64 H           3.128411    3.908670    0.446404 H         1 <1>         0.033201 
     65 H           0.216091    4.526952    0.374191 H         1 <1>         0.059620 
     66 H          -1.704409   -1.490930    0.118042 H         1 <1>         0.060009 
     67 H           3.100315    1.285767   -0.859230 H         1 <1>         0.027088 
     68 H           2.572825    0.088060    0.268127 H         1 <1>         0.027088 
     69 H           4.562438    1.921946    0.800456 H         1 <1>         0.026910 
     70 H           3.484095    1.313294    2.077114 H         1 <1>         0.026910 
     71 H          -3.902489    3.039689    1.439071 H         1 <1>         0.027150 
     72 H          -3.802995    2.838093   -0.311355 H         1 <1>         0.027150 
     73 H          -0.597757   -0.653446    1.870916 H         1 <1>         0.023534 
     74 H           1.091217   -0.317520    1.825163 H         1 <1>         0.023534 
     75 H           0.025513    0.721866    2.736588 H         1 <1>         0.023534 
     76 H           1.922241    3.386209   -1.362357 H         1 <1>         0.023534 
     77 H           1.264061    1.944964   -2.082877 H         1 <1>         0.023534 
     78 H           0.198864    3.191475   -1.477353 H         1 <1>         0.023534 
     79 H          -3.887585    0.871283    2.692580 H         1 <1>         0.023526 
     80 H          -2.206003    0.956289    2.944156 H         1 <1>         0.023526 
     81 H          -2.874500   -0.489757    2.174339 H         1 <1>         0.023526 
     82 H          -6.483358    0.068124   -0.162680 H         1 <1>         0.059853 
     83 H          -5.854121    1.860182    1.637824 H         1 <1>         0.029037 
     84 H          -5.986938    2.274866   -0.066726 H         1 <1>         0.029037 
     85 H          -4.151391   -0.676632   -2.734967 H         1 <1>         0.023588 
     86 H          -5.818837   -0.872564   -2.203863 H         1 <1>         0.023588 
     87 H          -5.091602    0.751360   -2.255290 H         1 <1>         0.023588 
     88 H          -5.378345   -2.405667   -0.254492 H         1 <1>         0.023588 
     89 H          -3.923771   -2.202962    0.743202 H         1 <1>         0.023588 
     90 H          -3.787843   -2.554789   -0.993776 H         1 <1>         0.023588 
     91 H           1.187405    5.455461    2.276239 H         1 <1>         0.209789 
     92 H           1.900427    3.726731    4.049795 H         1 <1>         0.029579 
     93 H           3.205053    2.510087    4.038102 H         1 <1>         0.029579 
     94 H           5.343903    4.379435    1.450464 H         1 <1>         0.025730 
     95 H           5.456033    4.878141    3.145154 H         1 <1>         0.025730 
     96 H           5.430190    3.145811    2.743101 H         1 <1>         0.025730 
     97 H          -0.310188   -2.640128   -1.540932 H         1 <1>         0.093760 
     98 H          -5.271772   -0.779994    2.154826 H         1 <1>         0.209800 
     99 H           3.379668    6.105872    2.940120 H         1 <1>         0.210159 
    100 H           4.692222    4.098699    5.250452 H         1 <1>         0.030829 
    101 H           3.411509    5.355394    5.151573 H         1 <1>         0.030829 
    102 H          -2.069683   -3.891632   -2.612679 H         1 <1>         0.067477 
    103 H          -2.032327   -3.857467   -5.213993 H         1 <1>         0.064768 
    104 H           0.640412   -0.549672   -4.887453 H         1 <1>         0.064668 
    105 H           2.508419    2.760767    6.415876 H         1 <1>         0.057146 
    106 H          -1.245165   -1.667937   -6.235674 H         1 <1>         0.064673 
    107 H          -0.813585    1.112339   -3.820147 H         1 <1>         0.058370 
    108 H          -2.203368    0.010055   -3.925090 H         1 <1>         0.058370 
    109 H          -1.514912   -5.886042   -3.723390 H         1 <1>         0.093754 
    110 H          -3.782496   -2.740580   -4.085722 H         1 <1>         0.210005 
    111 H           0.158102   -3.563152   -6.353840 H         1 <1>         0.210004 
    112 H           0.298205   -5.947086   -5.480229 H         1 <1>         0.067095 
    113 H           1.833275    2.806227    8.671742 H         1 <1>         0.027427 
    114 H           4.483922    5.926025    7.150671 H         1 <1>         0.027427 
    115 H           3.173813    3.464562    9.642313 H         1 <1>         0.027427 
    116 H           1.710843    4.449752    9.344191 H         1 <1>         0.027427 
    117 H           4.309569    5.610882    8.881913 H         1 <1>         0.027427 
    118 H           3.000333    6.448006    8.001567 H         1 <1>         0.027427 
    119 H          -0.786406    1.077858   -6.190135 H         1 <1>         0.209508 
    120 H           2.359871   -7.236547   -4.823757 H         1 <1>         0.064758 
    121 H           1.102012   -6.816820   -0.747395 H         1 <1>         0.064668 
    122 H           3.032661   -7.108750   -2.370735 H         1 <1>         0.064673 
    123 H          -1.011640   -7.893786   -4.996132 H         1 <1>         0.210110 
    124 H           1.001748   -4.405711   -0.618271 H         1 <1>         0.058370 
    125 H           1.823130   -4.182595   -2.177001 H         1 <1>         0.058370 
    126 H           3.405535   -5.240545   -4.091746 H         1 <1>         0.210005 
    127 H           1.925304   -9.063555   -3.202242 H         1 <1>         0.210004 
    128 H           3.697114   -5.211688   -1.136414 H         1 <1>         0.209508 
@<TRIPOS>BOND
     1    1   25 1    
     2   40    1 1    
     3   24    2 1    
     4    2   91 1    
     5   33    3 1    
     6    3   98 1    
     7   35    4 1    
     8    4   99 1    
     9   40    5 1    
    10    5   44 1    
    11    6   42 1    
    12   49    6 1    
    13   43    7 1    
    14    7  110 1    
    15   46    8 1    
    16    8  111 1    
    17    9   49 1    
    18   54    9 1    
    19   47   10 1    
    20   10  119 1    
    21   50   11 1    
    22   11  123 1    
    23   53   12 1    
    24   12  126 1    
    25   55   13 1    
    26   13  127 1    
    27   56   14 1    
    28   14  128 1    
    29   15   16 1    
    30   15   17 1    
    31   21   15 1    
    32   15   30 1    
    33   16   19 1    
    34   16   26 1    
    35   16   31 1    
    36   18   17 1    
    37   17   22 1    
    38   17   57 1    
    39   20   18 1    
    40   18   29 1    
    41   18   32 1    
    42   19   23 1    
    43   19   24 1    
    44   19   58 1    
    45   25   20 1    
    46   20   27 1    
    47   20   59 1    
    48   25   21 1    
    49   21   60 1    
    50   21   61 1    
    51   22   24 1    
    52   22   62 1    
    53   22   63 1    
    54   28   23 1    
    55   23   35 1    
    56   23   64 1    
    57   24   65 1    
    58   25   66 1    
    59   26   28 1    
    60   26   67 1    
    61   26   68 1    
    62   27   33 1    
    63   27   36 1    
    64   27   37 1    
    65   28   69 1    
    66   28   70 1    
    67   29   34 1    
    68   29   71 1    
    69   29   72 1    
    70   30   73 1    
    71   30   74 1    
    72   30   75 1    
    73   31   76 1    
    74   31   77 1    
    75   31   78 1    
    76   32   79 1    
    77   32   80 1    
    78   32   81 1    
    79   33   34 1    
    80   33   82 1    
    81   34   83 1    
    82   34   84 1    
    83   35   38 1    
    84   35   39 1    
    85   36   85 1    
    86   36   86 1    
    87   36   87 1    
    88   37   88 1    
    89   37   89 1    
    90   37   90 1    
    91   38   41 1    
    92   38   92 1    
    93   38   93 1    
    94   39   94 1    
    95   39   95 1    
    96   39   96 1    
    97   42   40 1    
    98   40   97 1    
    99   41   45 1    
   100   41  100 1    
   101   41  101 1    
   102   42   43 1    
   103   42  102 1    
   104   43   46 1    
   105   43  103 1    
   106   46   44 1    
   107   44   47 1    
   108   44  104 1    
   109   45   48 2    
   110   45  105 1    
   111   46  106 1    
   112   47  107 1    
   113   47  108 1    
   114   48   51 1    
   115   48   52 1    
   116   49   50 1    
   117   49  109 1    
   118   53   50 1    
   119   50  112 1    
   120   51  113 1    
   121   51  115 1    
   122   51  116 1    
   123   52  114 1    
   124   52  117 1    
   125   52  118 1    
   126   55   53 1    
   127   53  120 1    
   128   54   55 1    
   129   54   56 1    
   130   54  121 1    
   131   55  122 1    
   132   56  124 1    
   133   56  125 1    
@<TRIPOS>SUBSTRUCTURE
     1 ****       15 TEMP              0 ****  ****    0 ROOT 
@<TRIPOS>NORMAL
@<TRIPOS>FF_PBC
FORCE_FIELD_SETUP_FEATURE Force Field Setup information
v1.0  0 0.000000 0.000000 0.000000 0.000000 0.000000 0.000000 NONE 0 0 0 0 1 0 0 0 0 0 0 0 0
