@<TRIPOS>MOLECULE
MOL004555
   35    36     1     1     0
SMALL
GASTEIGER


@<TRIPOS>ATOM
      1 O           1.210681   -2.304068    1.557822 O.3       1 <1>        -0.366446 
      2 C           0.231374   -1.815028    0.629371 C.3       1 <1>         0.162974 
      3 O           0.590127   -2.392373   -0.645557 O.3       1 <1>        -0.350119 
      4 C           1.351217   -1.511698   -1.492486 C.3       1 <1>         0.062764 
      5 C           0.356290   -0.392847   -1.913895 C.3       1 <1>         0.071631 
      6 C          -0.282717    0.327205   -0.684615 C.3       1 <1>        -0.015581 
      7 C           0.209123   -0.257825    0.672207 C.3       1 <1>         0.036732 
      8 C          -0.577739    0.297601    1.852218 C.2       1 <1>        -0.040259 
      9 C          -1.757325    0.920175    1.705455 C.2       1 <1>        -0.082168 
     10 C          -2.437046    1.156069    0.381533 C.3       1 <1>        -0.034134 
     11 C          -1.835233    0.266402   -0.732447 C.3       1 <1>        -0.045266 
     12 C           0.651162    0.584417   -3.046020 C.2       1 <1>         0.267520 
     13 O          -0.156539    0.687294   -3.952409 O.2       1 <1>        -0.264581 
     14 C           0.048523    0.143361    3.228414 C.3       1 <1>         0.065725 
     15 O          -0.893429    0.408397    4.286254 O.3       1 <1>        -0.390724 
     16 O           1.722861    1.396915   -3.118730 O.3       1 <1>        -0.318250 
     17 C           2.837607    1.140669   -2.254988 C.3       1 <1>         0.045876 
     18 H           1.250921   -3.255977    1.554639 H         1 <1>         0.212497 
     19 H          -0.768164   -2.208241    0.889317 H         1 <1>         0.091351 
     20 H           1.667118   -2.079632   -2.381347 H         1 <1>         0.056851 
     21 H           2.256083   -1.194277   -0.957654 H         1 <1>         0.056851 
     22 H          -0.440084   -1.020480   -2.353888 H         1 <1>         0.042757 
     23 H           0.007406    1.393617   -0.708575 H         1 <1>         0.031640 
     24 H           1.251041    0.073842    0.803079 H         1 <1>         0.039839 
     25 H          -2.286000    1.316011    2.573637 H         1 <1>         0.057244 
     26 H          -3.520442    0.957408    0.469074 H         1 <1>         0.030750 
     27 H          -2.302913    2.221869    0.125096 H         1 <1>         0.030750 
     28 H          -2.211099    0.613956   -1.709771 H         1 <1>         0.027128 
     29 H          -2.174568   -0.771126   -0.586416 H         1 <1>         0.027128 
     30 H           0.886582    0.856970    3.292189 H         1 <1>         0.060399 
     31 H           0.436726   -0.876604    3.363109 H         1 <1>         0.060399 
     32 H          -0.516321    0.339381    5.158372 H         1 <1>         0.209834 
     33 H           2.576850    1.152212   -1.187361 H         1 <1>         0.052962 
     34 H           3.328299    0.198186   -2.541979 H         1 <1>         0.052962 
     35 H           3.561175    1.952363   -2.430648 H         1 <1>         0.052962 
@<TRIPOS>BOND
     1    1    2 1    
     2    1   18 1    
     3    2    3 1    
     4    2    7 1    
     5    2   19 1    
     6    3    4 1    
     7    4    5 1    
     8    4   20 1    
     9    4   21 1    
    10    5    6 1    
    11    5   12 1    
    12    5   22 1    
    13    6    7 1    
    14    6   11 1    
    15    6   23 1    
    16    7    8 1    
    17    7   24 1    
    18    8    9 2    
    19    8   14 1    
    20    9   10 1    
    21    9   25 1    
    22   10   11 1    
    23   10   26 1    
    24   10   27 1    
    25   11   28 1    
    26   11   29 1    
    27   12   13 2    
    28   12   16 1    
    29   14   15 1    
    30   14   30 1    
    31   14   31 1    
    32   15   32 1    
    33   16   17 1    
    34   17   33 1    
    35   17   34 1    
    36   17   35 1    
@<TRIPOS>SUBSTRUCTURE
     1 ****        1 TEMP              0 ****  ****    0 ROOT 
@<TRIPOS>NORMAL
@<TRIPOS>FF_PBC
FORCE_FIELD_SETUP_FEATURE Force Field Setup information
v1.0  0 0.000000 0.000000 0.000000 0.000000 0.000000 0.000000 NONE 0 0 0 0 1 0 0 0 0 0 0 0 0
