@<TRIPOS>MOLECULE
MOL002280
   58    60     1     1     0
SMALL
GASTEIGER


@<TRIPOS>ATOM
      1 C           0.625765   -1.900885   -2.413865 C.ar      1 <1>        -0.000852 
      2 C           1.268558   -3.213745   -2.169266 C.ar      1 <1>         0.078856 
      3 C           1.987305   -3.428000   -1.030351 C.ar      1 <1>        -0.023722 
      4 C           2.187356   -2.332661   -0.048208 C.ar      1 <1>        -0.010218 
      5 C           1.597815   -1.002955   -0.333266 C.ar      1 <1>         0.042748 
      6 C           0.713497   -0.852708   -1.517439 C.ar      1 <1>         0.092072 
      7 C           2.918184   -2.533507    1.070419 C.ar      1 <1>        -0.050126 
      8 C           3.217711   -1.417467    2.002415 C.ar      1 <1>        -0.036918 
      9 C           2.723761   -0.141013    1.707372 C.ar      1 <1>         0.050374 
     10 C           1.891335    0.070067    0.496940 C.ar      1 <1>         0.093432 
     11 O           1.094705   -4.211430   -3.138746 O.3       1 <1>        -0.347811 
     12 C           1.746479   -5.489771   -3.067117 C.3       1 <1>         0.043028 
     13 O          -0.001010    0.351255   -1.690197 O.3       1 <1>        -0.311779 
     14 O           1.414799    1.352643    0.217878 O.3       1 <1>        -0.358434 
     15 C           3.017252    1.057544    2.581500 C.2       1 <1>         0.162846 
     16 C           2.692532    1.075965    4.053084 C.3       1 <1>        -0.001314 
     17 O           3.540702    2.036668    2.073802 O.2       1 <1>        -0.292259 
     18 C           4.087250   -1.684924    3.239800 C.3       1 <1>        -0.038943 
     19 C          -1.078533    0.502360   -2.639391 C.3       1 <1>         0.193671 
     20 O          -1.514419    1.876767   -2.686275 O.3       1 <1>        -0.340141 
     21 C          -2.272845    2.336937   -1.544537 C.3       1 <1>         0.113876 
     22 C          -3.509505    1.432230   -1.289225 C.3       1 <1>         0.111923 
     23 C          -3.071568   -0.047820   -1.156618 C.3       1 <1>         0.114074 
     24 C          -2.286472   -0.460308   -2.422192 C.3       1 <1>         0.134509 
     25 O          -4.214151   -0.905530   -0.972394 O.3       1 <1>        -0.386401 
     26 C          -1.427038    2.613365   -0.270499 C.3       1 <1>         0.086340 
     27 O          -4.222877    1.854437   -0.111608 O.3       1 <1>        -0.386488 
     28 O          -3.206966   -0.422791   -3.533677 O.3       1 <1>        -0.384091 
     29 O          -2.207557    3.441106    0.620000 O.3       1 <1>        -0.304736 
     30 C          -1.616056    3.752043    1.785940 C.2       1 <1>         0.358842 
     31 C          -2.333363    4.606924    2.760515 C.2       1 <1>         0.356395 
     32 O          -0.496898    3.341086    2.057064 O.2       1 <1>        -0.253246 
     33 O          -1.769970    4.909184    3.936903 O.3       1 <1>        -0.323459 
     34 O          -3.444655    5.037482    2.485779 O.2       1 <1>        -0.253447 
     35 H           0.069361   -1.816443   -3.337623 H         1 <1>         0.066938 
     36 H           2.435490   -4.392753   -0.827800 H         1 <1>         0.064939 
     37 H           3.315042   -3.519847    1.286260 H         1 <1>         0.062647 
     38 H           1.468733   -6.056440   -3.967915 H         1 <1>         0.052870 
     39 H           2.840714   -5.373473   -3.052201 H         1 <1>         0.052870 
     40 H           1.410454   -6.056947   -2.186140 H         1 <1>         0.052870 
     41 H           1.240615    1.487554   -0.709491 H         1 <1>         0.217366 
     42 H           3.611703    0.988354    4.650895 H         1 <1>         0.030933 
     43 H           2.004983    0.261222    4.322744 H         1 <1>         0.030933 
     44 H           2.204785    2.030572    4.299766 H         1 <1>         0.030933 
     45 H           4.798365   -0.860673    3.396827 H         1 <1>         0.027774 
     46 H           3.450996   -1.796786    4.130004 H         1 <1>         0.027774 
     47 H           4.672482   -2.607931    3.112164 H         1 <1>         0.027774 
     48 H          -0.660198    0.348653   -3.645275 H         1 <1>         0.094160 
     49 H          -2.652415    3.328174   -1.845982 H         1 <1>         0.064694 
     50 H          -4.173616    1.521588   -2.166932 H         1 <1>         0.064673 
     51 H          -2.442618   -0.176087   -0.262961 H         1 <1>         0.064758 
     52 H          -1.974259   -1.503528   -2.263033 H         1 <1>         0.067108 
     53 H          -4.785811   -0.903697   -1.734794 H         1 <1>         0.210005 
     54 H          -0.521722    3.164964   -0.569465 H         1 <1>         0.059274 
     55 H          -1.135564    1.674111    0.222378 H         1 <1>         0.059274 
     56 H          -4.978202    1.302466    0.069997 H         1 <1>         0.210004 
     57 H          -2.832996   -0.730960   -4.353804 H         1 <1>         0.210111 
     58 H          -2.327440    5.463356    4.472645 H         1 <1>         0.220722 
@<TRIPOS>BOND
     1    1    2 1    
     2    1    6 2    
     3    1   35 1    
     4    2    3 2    
     5    2   11 1    
     6    3    4 1    
     7    3   36 1    
     8    4    5 1    
     9    4    7 2    
    10    5    6 1    
    11    5   10 2    
    12    6   13 1    
    13    7    8 1    
    14    7   37 1    
    15    8    9 2    
    16    8   18 1    
    17    9   10 1    
    18    9   15 1    
    19   10   14 1    
    20   11   12 1    
    21   12   38 1    
    22   12   39 1    
    23   12   40 1    
    24   13   19 1    
    25   14   41 1    
    26   15   16 1    
    27   15   17 2    
    28   16   42 1    
    29   16   43 1    
    30   16   44 1    
    31   18   45 1    
    32   18   46 1    
    33   18   47 1    
    34   19   20 1    
    35   19   24 1    
    36   19   48 1    
    37   20   21 1    
    38   21   22 1    
    39   21   26 1    
    40   21   49 1    
    41   22   23 1    
    42   22   27 1    
    43   22   50 1    
    44   23   24 1    
    45   23   25 1    
    46   23   51 1    
    47   24   28 1    
    48   24   52 1    
    49   25   53 1    
    50   26   29 1    
    51   26   54 1    
    52   26   55 1    
    53   27   56 1    
    54   28   57 1    
    55   29   30 1    
    56   30   31 1    
    57   30   32 2    
    58   31   33 1    
    59   31   34 2    
    60   33   58 1    
@<TRIPOS>SUBSTRUCTURE
     1 ****        1 TEMP              0 ****  ****    0 ROOT 
@<TRIPOS>NORMAL
@<TRIPOS>FF_PBC
FORCE_FIELD_SETUP_FEATURE Force Field Setup information
v1.0  0 0.000000 0.000000 0.000000 0.000000 0.000000 0.000000 NONE 0 0 0 0 1 0 0 0 0 0 0 0 0
