@<TRIPOS>MOLECULE
MOL004608
   24    24     1     1     0
SMALL
GASTEIGER


@<TRIPOS>ATOM
      1 O          -2.478252    0.932692   -0.450739 O.3       1 <1>        -0.311865 
      2 O          -4.606533    0.903400    0.271620 O.2       1 <1>        -0.264965 
      3 C          -1.355036    0.044156   -0.343353 C.3       1 <1>         0.068538 
      4 C          -0.022544    0.823280   -0.488492 C.3       1 <1>        -0.026004 
      5 C          -1.568702   -0.624970    1.032934 C.3       1 <1>        -0.017021 
      6 C           1.217342   -0.102527   -0.357657 C.3       1 <1>        -0.050948 
      7 C          -3.100419   -0.811337    1.027252 C.3       1 <1>         0.035560 
      8 C           2.535554    0.689624   -0.573774 C.3       1 <1>        -0.055831 
      9 C          -3.489330    0.414941    0.252375 C.2       1 <1>         0.262499 
     10 C           3.775788   -0.232023   -0.440199 C.3       1 <1>        -0.065275 
     11 H          -1.439818   -0.718545   -1.138061 H         1 <1>         0.060203 
     12 H          -0.018456    1.308336   -1.478169 H         1 <1>         0.029027 
     13 H           0.016654    1.613972    0.277855 H         1 <1>         0.029027 
     14 H          -1.023809   -1.574558    1.157097 H         1 <1>         0.029507 
     15 H          -1.278693    0.072534    1.836383 H         1 <1>         0.029507 
     16 H           1.235591   -0.558279    0.645291 H         1 <1>         0.026600 
     17 H           1.150615   -0.910152   -1.105027 H         1 <1>         0.026600 
     18 H          -3.533272   -0.835591    2.039585 H         1 <1>         0.036689 
     19 H          -3.405735   -1.707255    0.464355 H         1 <1>         0.036689 
     20 H           2.533240    1.145228   -1.578114 H         1 <1>         0.026266 
     21 H           2.605908    1.499317    0.171800 H         1 <1>         0.026266 
     22 H           4.698504    0.349068   -0.596527 H         1 <1>         0.022978 
     23 H           3.812904   -0.684164    0.563193 H         1 <1>         0.022978 
     24 H           3.738302   -1.037649   -1.190031 H         1 <1>         0.022978 
@<TRIPOS>BOND
     1    1    3 1    
     2    1    9 1    
     3    9    2 2    
     4    3    4 1    
     5    3    5 1    
     6    3   11 1    
     7    4    6 1    
     8    4   12 1    
     9    4   13 1    
    10    5    7 1    
    11    5   14 1    
    12    5   15 1    
    13    6    8 1    
    14    6   16 1    
    15    6   17 1    
    16    7    9 1    
    17    7   18 1    
    18    7   19 1    
    19    8   10 1    
    20    8   20 1    
    21    8   21 1    
    22   10   22 1    
    23   10   23 1    
    24   10   24 1    
@<TRIPOS>SUBSTRUCTURE
     1 ****        1 TEMP              0 ****  ****    0 ROOT 
@<TRIPOS>NORMAL
@<TRIPOS>FF_PBC
FORCE_FIELD_SETUP_FEATURE Force Field Setup information
v1.0  0 0.000000 0.000000 0.000000 0.000000 0.000000 0.000000 NONE 0 0 0 0 1 0 0 0 0 0 0 0 0
