@<TRIPOS>MOLECULE
MOL001641
   55    54     1     1     0
SMALL
GASTEIGER


@<TRIPOS>ATOM
      1 C           1.707737    2.778154   -0.550199 C.3       1 <1>        -0.052779 
      2 C           3.018118    1.958291   -0.716474 C.3       1 <1>        -0.049616 
      3 C           1.989435    4.295363   -0.371267 C.3       1 <1>        -0.053036 
      4 C           2.703114    0.442636   -0.841031 C.3       1 <1>        -0.034751 
      5 C           0.692613    5.156615   -0.348109 C.3       1 <1>        -0.052596 
      6 C           3.949287   -0.404950   -0.960248 C.2       1 <1>        -0.087640 
      7 C          -0.255317    4.816387    0.836222 C.3       1 <1>        -0.044055 
      8 C           4.005233   -1.707640   -0.641043 C.2       1 <1>        -0.084202 
      9 C          -1.465689    5.788062    0.896135 C.3       1 <1>         0.033189 
     10 C           2.825305   -2.515151   -0.146712 C.3       1 <1>        -0.016545 
     11 C          -2.413610    5.456629    2.020182 C.2       1 <1>         0.261905 
     12 C           2.926691   -3.981224   -0.504272 C.2       1 <1>        -0.084202 
     13 O          -3.529072    6.200273    2.051487 O.3       1 <1>        -0.318522 
     14 O          -2.171776    4.576215    2.832960 O.2       1 <1>        -0.264985 
     15 C           1.882901   -4.771201   -0.800653 C.2       1 <1>        -0.087640 
     16 C          -4.424746    5.864047    3.130050 C.3       1 <1>         0.045865 
     17 C           0.439110   -4.321597   -0.795560 C.3       1 <1>        -0.034751 
     18 C          -0.545742   -5.516515   -0.682263 C.3       1 <1>        -0.049624 
     19 C          -2.021575   -5.030665   -0.664210 C.3       1 <1>        -0.053028 
     20 C          -3.008240   -6.218820   -0.507474 C.3       1 <1>        -0.055902 
     21 C          -4.479578   -5.728681   -0.490491 C.3       1 <1>        -0.065276 
     22 H           1.071710    2.625505   -1.437385 H         1 <1>         0.026538 
     23 H           1.175939    2.393071    0.334060 H         1 <1>         0.026538 
     24 H           3.669021    2.121515    0.158531 H         1 <1>         0.026822 
     25 H           3.556006    2.298486   -1.616001 H         1 <1>         0.026822 
     26 H           2.555289    4.456382    0.561726 H         1 <1>         0.026529 
     27 H           2.617616    4.637115   -1.210460 H         1 <1>         0.026529 
     28 H           2.080326    0.270000   -1.733745 H         1 <1>         0.030732 
     29 H           2.132768    0.146758    0.054073 H         1 <1>         0.030732 
     30 H           0.987633    6.216536   -0.267272 H         1 <1>         0.026540 
     31 H           0.148431    5.028569   -1.298417 H         1 <1>         0.026540 
     32 H           4.857023    0.077333   -1.328810 H         1 <1>         0.056905 
     33 H          -0.655218    3.796088    0.724037 H         1 <1>         0.027004 
     34 H           0.305442    4.873604    1.784028 H         1 <1>         0.027004 
     35 H           4.968511   -2.211775   -0.740442 H         1 <1>         0.057203 
     36 H          -1.113503    6.820257    1.044924 H         1 <1>         0.036606 
     37 H          -2.027500    5.743615   -0.050650 H         1 <1>         0.036606 
     38 H           2.788224   -2.432282    0.950135 H         1 <1>         0.034961 
     39 H           1.899478   -2.099268   -0.565113 H         1 <1>         0.034961 
     40 H           3.921797   -4.431025   -0.514610 H         1 <1>         0.057203 
     41 H           2.088182   -5.810056   -1.063422 H         1 <1>         0.056905 
     42 H          -5.301272    6.525209    3.060141 H         1 <1>         0.052962 
     43 H          -4.771464    4.820824    3.054278 H         1 <1>         0.052962 
     44 H          -3.949034    6.022516    4.111195 H         1 <1>         0.052962 
     45 H           0.254985   -3.652142    0.059373 H         1 <1>         0.030732 
     46 H           0.241212   -3.770716   -1.728613 H         1 <1>         0.030732 
     47 H          -0.397524   -6.198178   -1.536482 H         1 <1>         0.026822 
     48 H          -0.328623   -6.072569    0.244554 H         1 <1>         0.026822 
     49 H          -2.165813   -4.329177    0.173748 H         1 <1>         0.026529 
     50 H          -2.238618   -4.494496   -1.602380 H         1 <1>         0.026529 
     51 H          -2.870721   -6.925049   -1.343096 H         1 <1>         0.026265 
     52 H          -2.794985   -6.752689    0.433613 H         1 <1>         0.026265 
     53 H          -5.162301   -6.584981   -0.370376 H         1 <1>         0.022978 
     54 H          -4.643176   -5.030150    0.344856 H         1 <1>         0.022978 
     55 H          -4.724036   -5.215258   -1.433825 H         1 <1>         0.022978 
@<TRIPOS>BOND
     1    1    2 1    
     2    1    3 1    
     3    1   22 1    
     4    1   23 1    
     5    2    4 1    
     6    2   24 1    
     7    2   25 1    
     8    3    5 1    
     9    3   26 1    
    10    3   27 1    
    11    4    6 1    
    12    4   28 1    
    13    4   29 1    
    14    5    7 1    
    15    5   30 1    
    16    5   31 1    
    17    6    8 2    
    18    6   32 1    
    19    7    9 1    
    20    7   33 1    
    21    7   34 1    
    22    8   10 1    
    23    8   35 1    
    24    9   11 1    
    25    9   36 1    
    26    9   37 1    
    27   10   12 1    
    28   10   38 1    
    29   10   39 1    
    30   11   13 1    
    31   11   14 2    
    32   12   15 2    
    33   12   40 1    
    34   13   16 1    
    35   15   17 1    
    36   15   41 1    
    37   16   42 1    
    38   16   43 1    
    39   16   44 1    
    40   17   18 1    
    41   17   45 1    
    42   17   46 1    
    43   18   19 1    
    44   18   47 1    
    45   18   48 1    
    46   19   20 1    
    47   19   49 1    
    48   19   50 1    
    49   20   21 1    
    50   20   51 1    
    51   20   52 1    
    52   21   53 1    
    53   21   54 1    
    54   21   55 1    
@<TRIPOS>SUBSTRUCTURE
     1 ****        1 TEMP              0 ****  ****    0 ROOT 
@<TRIPOS>NORMAL
@<TRIPOS>FF_PBC
FORCE_FIELD_SETUP_FEATURE Force Field Setup information
v1.0  0 0.000000 0.000000 0.000000 0.000000 0.000000 0.000000 NONE 0 0 0 0 1 0 0 0 0 0 0 0 0
