@<TRIPOS>MOLECULE
MOL010380
   39    41     1     1     0
SMALL
GASTEIGER


@<TRIPOS>ATOM
      1 C          -2.085023    1.337763    0.408012 C.3       1 <1>        -0.037641 
      2 C          -2.606766    1.315946    1.874550 C.3       1 <1>        -0.061892 
      3 C          -2.857818    0.348597   -0.535828 C.3       1 <1>        -0.049653 
      4 C          -1.881967   -0.799552   -0.955892 C.3       1 <1>        -0.048924 
      5 C          -0.788090   -0.640207    0.115703 C.3       1 <1>        -0.029133 
      6 C           0.636372   -1.259076    0.082210 C.3       1 <1>        -0.025033 
      7 C           0.716712   -2.549789    0.955385 C.3       1 <1>        -0.058999 
      8 C           1.067466   -1.643689   -1.366211 C.3       1 <1>        -0.058999 
      9 C           1.466962   -0.106086    0.758057 C.3       1 <1>        -0.014216 
     10 C           0.435224    0.882178    1.391337 C.3       1 <1>        -0.039545 
     11 C           2.222218    0.668977   -0.292766 C.2       1 <1>        -0.072897 
     12 C           3.719384    0.476835   -0.363618 C.3       1 <1>        -0.043506 
     13 C           1.539825    1.480725   -1.107365 C.2       1 <1>        -0.084204 
     14 C           0.045494    1.641112   -0.965743 C.3       1 <1>        -0.028301 
     15 C          -0.603239    0.884831    0.246056 C.3       1 <1>        -0.019354 
     16 H          -2.228396    2.376971    0.064461 H         1 <1>         0.030364 
     17 H          -2.005747    2.000236    2.493369 H         1 <1>         0.023259 
     18 H          -3.650856    1.666214    1.898131 H         1 <1>         0.023259 
     19 H          -2.580015    0.317800    2.332495 H         1 <1>         0.023259 
     20 H          -3.234882    0.862797   -1.435803 H         1 <1>         0.026811 
     21 H          -3.726682   -0.074632   -0.006102 H         1 <1>         0.026811 
     22 H          -2.351419   -1.797432   -0.931787 H         1 <1>         0.026837 
     23 H          -1.486589   -0.640250   -1.969319 H         1 <1>         0.026837 
     24 H          -1.265088   -1.033764    1.029294 H         1 <1>         0.031165 
     25 H           1.732828   -2.971871    0.918308 H         1 <1>         0.023525 
     26 H           0.009218   -3.308254    0.586098 H         1 <1>         0.023525 
     27 H           0.477985   -2.338075    2.009462 H         1 <1>         0.023525 
     28 H           2.111701   -1.988190   -1.374381 H         1 <1>         0.023525 
     29 H           0.972177   -0.818712   -2.083741 H         1 <1>         0.023525 
     30 H           0.435913   -2.467190   -1.732800 H         1 <1>         0.023525 
     31 H           2.167491   -0.465360    1.530053 H         1 <1>         0.035097 
     32 H           0.038918    0.470190    2.333693 H         1 <1>         0.027674 
     33 H           0.850234    1.881556    1.599658 H         1 <1>         0.027674 
     34 H           4.178251    0.881618    0.550766 H         1 <1>         0.027445 
     35 H           3.963457   -0.592978   -0.436588 H         1 <1>         0.027445 
     36 H           4.160667    0.991605   -1.230321 H         1 <1>         0.027445 
     37 H           2.055375    2.044930   -1.885627 H         1 <1>         0.057180 
     38 H          -0.074814    2.720696   -0.784067 H         1 <1>         0.031293 
     39 H          -0.447302    1.416983   -1.921194 H         1 <1>         0.031293 
@<TRIPOS>BOND
     1    1    2 1    
     2    1    3 1    
     3    1   15 1    
     4    1   16 1    
     5    2   17 1    
     6    2   18 1    
     7    2   19 1    
     8    3    4 1    
     9    3   20 1    
    10    3   21 1    
    11    4    5 1    
    12    4   22 1    
    13    4   23 1    
    14    5    6 1    
    15    5   15 1    
    16    5   24 1    
    17    6    7 1    
    18    6    8 1    
    19    6    9 1    
    20    7   25 1    
    21    7   26 1    
    22    7   27 1    
    23    8   28 1    
    24    8   29 1    
    25    8   30 1    
    26    9   10 1    
    27    9   11 1    
    28    9   31 1    
    29   10   15 1    
    30   10   32 1    
    31   10   33 1    
    32   11   12 1    
    33   11   13 2    
    34   12   34 1    
    35   12   35 1    
    36   12   36 1    
    37   13   14 1    
    38   13   37 1    
    39   14   15 1    
    40   14   38 1    
    41   14   39 1    
@<TRIPOS>SUBSTRUCTURE
     1 ****        1 TEMP              0 ****  ****    0 ROOT 
@<TRIPOS>NORMAL
@<TRIPOS>FF_PBC
FORCE_FIELD_SETUP_FEATURE Force Field Setup information
v1.0  0 0.000000 0.000000 0.000000 0.000000 0.000000 0.000000 NONE 0 0 0 0 1 0 0 0 0 0 0 0 0
