@<TRIPOS>MOLECULE
MOL012439
   39    39     1     1     0
SMALL
GASTEIGER


@<TRIPOS>ATOM
      1 C          -0.252159    0.977450   -0.598498 C.2       1 <1>        -0.081679 
      2 C           0.576243   -1.581800   -0.680903 C.2       1 <1>        -0.084219 
      3 C           1.798865   -1.771879   -0.155492 C.2       1 <1>        -0.076214 
      4 C           3.000714   -1.716747   -1.079949 C.3       1 <1>        -0.028562 
      5 C           1.872128    2.155364    0.045801 C.3       1 <1>        -0.013778 
      6 C           0.705008    1.234189    0.303931 C.2       1 <1>        -0.083431 
      7 C           3.328041   -0.219862   -1.345183 C.3       1 <1>        -0.030830 
      8 C           3.755121    0.468550   -0.066564 C.2       1 <1>        -0.084435 
      9 C           3.138938    1.491681    0.552446 C.2       1 <1>        -0.072803 
     10 C           3.688553    2.053108    1.847542 C.3       1 <1>        -0.043495 
     11 C           2.090060   -1.997883    1.315589 C.3       1 <1>        -0.043778 
     12 C          -0.733013   -1.399630    0.059438 C.3       1 <1>        -0.025904 
     13 C          -1.367349   -0.027736   -0.354298 C.3       1 <1>        -0.013453 
     14 C          -2.195559   -0.196508   -1.665120 C.3       1 <1>        -0.056067 
     15 C          -2.319093    0.509163    0.754402 C.3       1 <1>        -0.056067 
     16 H          -0.211689    1.498072   -1.555652 H         1 <1>         0.057453 
     17 H           0.503230   -1.504526   -1.765471 H         1 <1>         0.057181 
     18 H           2.773167   -2.213502   -2.037681 H         1 <1>         0.031285 
     19 H           3.882440   -2.225765   -0.660131 H         1 <1>         0.031285 
     20 H           1.676346    3.092823    0.589144 H         1 <1>         0.035221 
     21 H           1.981084    2.421450   -1.016316 H         1 <1>         0.035221 
     22 H           0.666778    0.757728    1.282370 H         1 <1>         0.057228 
     23 H           4.162055   -0.151361   -2.062518 H         1 <1>         0.031044 
     24 H           2.454792    0.258207   -1.811713 H         1 <1>         0.031044 
     25 H           4.663652    0.058628    0.376583 H         1 <1>         0.057173 
     26 H           4.576444    1.516585    2.214716 H         1 <1>         0.027445 
     27 H           3.965262    3.108101    1.701353 H         1 <1>         0.027445 
     28 H           2.912661    1.994068    2.625809 H         1 <1>         0.027445 
     29 H           2.957285   -2.661269    1.447018 H         1 <1>         0.027436 
     30 H           2.315419   -1.041039    1.806910 H         1 <1>         0.027436 
     31 H           1.258453   -2.483831    1.842712 H         1 <1>         0.027436 
     32 H          -0.578750   -1.387234    1.145267 H         1 <1>         0.031557 
     33 H          -1.410146   -2.238683   -0.162502 H         1 <1>         0.031557 
     34 H          -2.637864    0.765317   -1.968036 H         1 <1>         0.023804 
     35 H          -1.570049   -0.556844   -2.494627 H         1 <1>         0.023804 
     36 H          -3.015871   -0.915493   -1.516883 H         1 <1>         0.023804 
     37 H          -2.763747    1.467784    0.445622 H         1 <1>         0.023804 
     38 H          -3.130958   -0.210930    0.939211 H         1 <1>         0.023804 
     39 H          -1.784592    0.674355    1.701771 H         1 <1>         0.023804 
@<TRIPOS>BOND
     1    6    1 2    
     2    1   13 1    
     3    1   16 1    
     4    3    2 2    
     5    2   12 1    
     6    2   17 1    
     7    4    3 1    
     8    3   11 1    
     9    7    4 1    
    10    4   18 1    
    11    4   19 1    
    12    5    6 1    
    13    9    5 1    
    14    5   20 1    
    15    5   21 1    
    16    6   22 1    
    17    8    7 1    
    18    7   23 1    
    19    7   24 1    
    20    8    9 2    
    21    8   25 1    
    22    9   10 1    
    23   10   26 1    
    24   10   27 1    
    25   10   28 1    
    26   11   29 1    
    27   11   30 1    
    28   11   31 1    
    29   12   13 1    
    30   12   32 1    
    31   12   33 1    
    32   13   14 1    
    33   13   15 1    
    34   14   34 1    
    35   14   35 1    
    36   14   36 1    
    37   15   37 1    
    38   15   38 1    
    39   15   39 1    
@<TRIPOS>SUBSTRUCTURE
     1 ****        2 TEMP              0 ****  ****    0 ROOT 
@<TRIPOS>NORMAL
@<TRIPOS>FF_PBC
FORCE_FIELD_SETUP_FEATURE Force Field Setup information
v1.0  0 0.000000 0.000000 0.000000 0.000000 0.000000 0.000000 NONE 0 0 0 0 1 0 0 0 0 0 0 0 0
