@<TRIPOS>MOLECULE
MOL005743
   45    46     1     1     0
SMALL
GASTEIGER


@<TRIPOS>ATOM
      1 O           2.027373   -2.529307    0.077139 O.3       1 <1>        -0.388554 
      2 O          -4.155985   -1.160501   -1.652103 O.3       1 <1>        -0.388845 
      3 C           0.556723    0.936286    0.068156 C.3       1 <1>        -0.026614 
      4 C           0.652825   -0.596783   -0.226236 C.3       1 <1>        -0.006655 
      5 C           2.110542   -1.160920   -0.378315 C.3       1 <1>         0.066629 
      6 C          -0.307324   -1.083233   -1.355088 C.3       1 <1>        -0.041681 
      7 C          -1.794796   -0.706564   -1.080064 C.3       1 <1>        -0.012271 
      8 C          -0.951081    1.270307    0.321219 C.3       1 <1>        -0.046938 
      9 C           1.370805    1.277445    1.371156 C.3       1 <1>        -0.047188 
     10 C          -1.885177    0.829923   -0.838435 C.3       1 <1>        -0.047110 
     11 C           3.118370   -0.383565    0.526698 C.3       1 <1>        -0.023966 
     12 C           2.413250    0.193685    1.775729 C.3       1 <1>        -0.049957 
     13 C           1.078585    1.822632   -1.112134 C.3       1 <1>        -0.059217 
     14 C          -2.808859   -1.246066   -2.156496 C.3       1 <1>         0.063340 
     15 C           2.642349   -1.206938   -1.842789 C.3       1 <1>        -0.035800 
     16 C          -2.745996   -0.508666   -3.526240 C.3       1 <1>        -0.036079 
     17 C          -2.617789   -2.769816   -2.407463 C.3       1 <1>        -0.036079 
     18 H           0.253814   -1.070199    0.687871 H         1 <1>         0.033373 
     19 H          -0.201895   -2.178059   -1.397399 H         1 <1>         0.027254 
     20 H          -0.006730   -0.676347   -2.328308 H         1 <1>         0.027254 
     21 H          -2.083532   -1.200364   -0.136105 H         1 <1>         0.032834 
     22 H          -1.069984    2.352443    0.497940 H         1 <1>         0.027071 
     23 H          -1.304640    0.754822    1.230223 H         1 <1>         0.027071 
     24 H           1.894873    2.238551    1.241148 H         1 <1>         0.027062 
     25 H           0.714911    1.410312    2.247147 H         1 <1>         0.027062 
     26 H          -2.910193    1.118347   -0.559386 H         1 <1>         0.026900 
     27 H          -1.623989    1.388228   -1.746880 H         1 <1>         0.026900 
     28 H           3.593231    0.447694   -0.013403 H         1 <1>         0.029283 
     29 H           3.934268   -1.053048    0.843518 H         1 <1>         0.029283 
     30 H           3.159312    0.637315    2.457867 H         1 <1>         0.026634 
     31 H           1.931956   -0.636884    2.318997 H         1 <1>         0.026634 
     32 H           0.806754    2.875084   -0.939778 H         1 <1>         0.023517 
     33 H           0.668536    1.535010   -2.087307 H         1 <1>         0.023517 
     34 H           2.170326    1.797118   -1.199626 H         1 <1>         0.023517 
     35 H           2.083348   -1.941476   -2.440834 H         1 <1>         0.025730 
     36 H           2.577434   -0.231750   -2.341145 H         1 <1>         0.025730 
     37 H           3.697923   -1.518817   -1.843585 H         1 <1>         0.025730 
     38 H           2.845336   -3.012751    0.027371 H         1 <1>         0.210159 
     39 H          -1.743465   -0.571892   -3.971615 H         1 <1>         0.025721 
     40 H          -3.459906   -0.969353   -4.225797 H         1 <1>         0.025721 
     41 H          -3.024426    0.549708   -3.429021 H         1 <1>         0.025721 
     42 H          -1.707081   -2.976818   -2.988468 H         1 <1>         0.025721 
     43 H          -3.470814   -3.165444   -2.980437 H         1 <1>         0.025721 
     44 H          -2.570303   -3.315514   -1.452732 H         1 <1>         0.025721 
     45 H          -4.480177   -0.275035   -1.537789 H         1 <1>         0.210147 
@<TRIPOS>BOND
     1    5    1 1    
     2    1   38 1    
     3   14    2 1    
     4    2   45 1    
     5    4    3 1    
     6    3    8 1    
     7    3    9 1    
     8    3   13 1    
     9    4    5 1    
    10    6    4 1    
    11    4   18 1    
    12    5   11 1    
    13    5   15 1    
    14    7    6 1    
    15    6   19 1    
    16    6   20 1    
    17    7   10 1    
    18    7   14 1    
    19    7   21 1    
    20    8   10 1    
    21    8   22 1    
    22    8   23 1    
    23    9   12 1    
    24    9   24 1    
    25    9   25 1    
    26   10   26 1    
    27   10   27 1    
    28   11   12 1    
    29   11   28 1    
    30   11   29 1    
    31   12   30 1    
    32   12   31 1    
    33   13   32 1    
    34   13   33 1    
    35   13   34 1    
    36   14   16 1    
    37   14   17 1    
    38   15   35 1    
    39   15   36 1    
    40   15   37 1    
    41   16   39 1    
    42   16   40 1    
    43   16   41 1    
    44   17   42 1    
    45   17   43 1    
    46   17   44 1    
@<TRIPOS>SUBSTRUCTURE
     1 ****        3 TEMP              0 ****  ****    0 ROOT 
@<TRIPOS>NORMAL
@<TRIPOS>FF_PBC
FORCE_FIELD_SETUP_FEATURE Force Field Setup information
v1.0  0 0.000000 0.000000 0.000000 0.000000 0.000000 0.000000 NONE 0 0 0 0 1 0 0 0 0 0 0 0 0
