@<TRIPOS>MOLECULE
MOL004617
   21    22     1     1     0
SMALL
GASTEIGER


@<TRIPOS>ATOM
      1 O          -2.017253    1.277714   -0.251360 O.3       1 <1>        -0.273710 
      2 O           0.459058   -2.933809   -0.754112 O.3       1 <1>        -0.347829 
      3 O          -3.094557    3.184467    0.002859 O.2       1 <1>        -0.259480 
      4 C           0.161321    0.978720    0.942908 C.ar      1 <1>         0.005924 
      5 C          -0.908981    0.481504    0.047604 C.ar      1 <1>         0.096009 
      6 C          -0.807749   -0.804318   -0.505470 C.ar      1 <1>        -0.000462 
      7 C           1.279755    0.165318    1.241934 C.ar      1 <1>        -0.049671 
      8 C           0.362799   -1.659537   -0.198586 C.ar      1 <1>         0.078311 
      9 C           1.375303   -1.190692    0.651258 C.ar      1 <1>        -0.030973 
     10 C           0.008038    2.367065    1.512371 C.2       1 <1>        -0.046443 
     11 C          -1.083891    3.057808    1.173490 C.2       1 <1>         0.010952 
     12 C          -2.118366    2.505818    0.275478 C.2       1 <1>         0.291579 
     13 C           0.941709   -2.940625   -2.106945 C.3       1 <1>         0.043027 
     14 H          -1.588868   -1.174622   -1.159128 H         1 <1>         0.066953 
     15 H           2.064237    0.527445    1.898009 H         1 <1>         0.062503 
     16 H           2.227264   -1.824173    0.872690 H         1 <1>         0.064348 
     17 H           0.765077    2.785784    2.176345 H         1 <1>         0.062605 
     18 H          -1.231384    4.064654    1.564632 H         1 <1>         0.067748 
     19 H           0.985909   -3.984010   -2.452248 H         1 <1>         0.052870 
     20 H           1.952865   -2.507530   -2.160155 H         1 <1>         0.052870 
     21 H           0.268015   -2.377383   -2.771274 H         1 <1>         0.052870 
@<TRIPOS>BOND
     1    5    1 1    
     2    1   12 1    
     3    8    2 1    
     4    2   13 1    
     5   12    3 2    
     6    5    4 1    
     7    4    7 2    
     8    4   10 1    
     9    6    5 2    
    10    6    8 1    
    11    6   14 1    
    12    7    9 1    
    13    7   15 1    
    14    8    9 2    
    15    9   16 1    
    16   10   11 2    
    17   10   17 1    
    18   11   12 1    
    19   11   18 1    
    20   13   19 1    
    21   13   20 1    
    22   13   21 1    
@<TRIPOS>SUBSTRUCTURE
     1 ****        1 TEMP              0 ****  ****    0 ROOT 
@<TRIPOS>NORMAL
@<TRIPOS>FF_PBC
FORCE_FIELD_SETUP_FEATURE Force Field Setup information
v1.0  0 0.000000 0.000000 0.000000 0.000000 0.000000 0.000000 NONE 0 0 0 0 1 0 0 0 0 0 0 0 0
