@<TRIPOS>MOLECULE
MOL012951
   35    38     1     1     0
SMALL
GASTEIGER


@<TRIPOS>ATOM
      1 P           4.639731    0.125565   -0.791663 P.3       1 <1>         0.475418 
      2 O           0.969455    0.593762    1.439528 O.3       1 <1>        -0.309314 
      3 O           3.216597   -0.549729   -1.085853 O.3       1 <1>        -0.277718 
      4 O           4.616914    0.561865    0.750283 O.3       1 <1>        -0.283971 
      5 O           1.026288   -2.141223   -0.480584 O.3       1 <1>        -0.380286 
      6 O           4.850126    1.409661   -1.716479 O.3       1 <1>        -0.302467 
      7 O           5.731318   -0.855363   -1.037635 O.2       1 <1>        -0.227311 
      8 O          -5.265779    2.037509   -0.825656 O.2       1 <1>        -0.263173 
      9 N          -1.166837    0.585828    0.474895 N.ar      1 <1>        -0.135059 
     10 N          -2.963699   -1.089618    0.085452 N.pl3     1 <1>        -0.231997 
     11 N          -2.344523    2.376036    0.020696 N.ar      1 <1>        -0.180114 
     12 N          -4.986310   -0.276403   -0.558573 N.2       1 <1>        -0.177491 
     13 N          -4.698564   -2.474003   -0.293856 N.pl3     1 <1>        -0.330610 
     14 C           2.073160    0.057278   -0.473089 C.3       1 <1>         0.133140 
     15 C           2.276240    0.151935    1.049476 C.3       1 <1>         0.118550 
     16 C           0.743039   -0.729060   -0.541122 C.3       1 <1>         0.173650 
     17 C           0.018111   -0.241833    0.751834 C.3       1 <1>         0.297891 
     18 C           3.444778    1.112692    1.369411 C.3       1 <1>         0.088027 
     19 C          -2.410906    0.147122    0.151411 C.ar      1 <1>         0.312153 
     20 C          -1.141596    1.974307    0.408673 C.ar      1 <1>         0.271776 
     21 C          -3.110602    1.258677   -0.129911 C.ar      1 <1>         0.223103 
     22 C          -4.545214    1.096845   -0.538817 C.2       1 <1>         0.306555 
     23 C          -4.224734   -1.258319   -0.260280 C.2       1 <1>         0.189535 
     24 H           1.918586    1.066821   -0.892150 H         1 <1>         0.065789 
     25 H           2.505963   -0.844806    1.468098 H         1 <1>         0.064850 
     26 H           0.195945   -0.486554   -1.469005 H         1 <1>         0.071577 
     27 H          -0.222281   -1.099207    1.403994 H         1 <1>         0.144485 
     28 H           3.239763    2.120504    0.977657 H         1 <1>         0.059232 
     29 H           3.602606    1.186557    2.455891 H         1 <1>         0.059232 
     30 H           0.263102   -2.704987   -0.568833 H         1 <1>         0.210285 
     31 H          -0.299975    2.626229    0.630237 H         1 <1>         0.162025 
     32 H          -2.378070   -1.903782    0.318616 H         1 <1>         0.160379 
     33 H           4.233634    2.085784   -1.472789 H         1 <1>         0.222031 
     34 H          -5.684082   -2.624748   -0.560247 H         1 <1>         0.144915 
     35 H          -4.122283   -3.295244   -0.058809 H         1 <1>         0.144915 
@<TRIPOS>BOND
     1    3    1 1    
     2    1    4 1    
     3    1    6 1    
     4    1    7 2    
     5   15    2 1    
     6    2   17 1    
     7   14    3 1    
     8    4   18 1    
     9   16    5 1    
    10    5   30 1    
    11    6   33 1    
    12   22    8 2    
    13   17    9 1    
    14    9   19 1    
    15    9   20 1    
    16   19   10 1    
    17   10   23 1    
    18   10   32 1    
    19   20   11 2    
    20   11   21 1    
    21   12   22 1    
    22   23   12 2    
    23   23   13 1    
    24   13   34 1    
    25   13   35 1    
    26   14   15 1    
    27   14   16 1    
    28   14   24 1    
    29   15   18 1    
    30   15   25 1    
    31   16   17 1    
    32   16   26 1    
    33   17   27 1    
    34   18   28 1    
    35   18   29 1    
    36   19   21 2    
    37   20   31 1    
    38   21   22 1    
@<TRIPOS>SUBSTRUCTURE
     1 ****        1 TEMP              0 ****  ****    0 ROOT 
@<TRIPOS>NORMAL
@<TRIPOS>FF_PBC
FORCE_FIELD_SETUP_FEATURE Force Field Setup information
v1.0  0 0.000000 0.000000 0.000000 0.000000 0.000000 0.000000 NONE 0 0 0 0 1 0 0 0 0 0 0 0 0
