@<TRIPOS>MOLECULE
MOL010563
   22    22     1     1     0
SMALL
GASTEIGER


@<TRIPOS>ATOM
      1 C           0.899094    2.229733   -0.096771 C.2       1 <1>         0.286346 
      2 C           2.066074    1.366998    0.169064 C.2       1 <1>         0.010482 
      3 C           2.065349    0.033913    0.310793 C.2       1 <1>        -0.048937 
      4 C           0.818744   -0.823671    0.293005 C.ar      1 <1>        -0.024850 
      5 C           0.825755   -2.085421   -0.486232 C.ar      1 <1>        -0.054590 
      6 C          -0.317530   -2.900098   -0.525796 C.ar      1 <1>        -0.061202 
      7 C          -1.539429   -2.500696    0.211574 C.ar      1 <1>        -0.061723 
      8 C          -1.549873   -1.314174    0.958533 C.ar      1 <1>        -0.061202 
      9 C          -0.340338   -0.459113    1.010939 C.ar      1 <1>        -0.054590 
     10 O           0.989439    3.421909    0.153519 O.2       1 <1>        -0.259888 
     11 O          -0.219861    1.703483   -0.617943 O.3       1 <1>        -0.315197 
     12 C          -1.292581    2.647553   -0.802121 C.3       1 <1>         0.046178 
     13 H           3.021475    1.887824    0.244340 H         1 <1>         0.067735 
     14 H           3.013229   -0.488629    0.447987 H         1 <1>         0.062525 
     15 H           1.718757   -2.379048   -1.028356 H         1 <1>         0.062344 
     16 H          -0.309284   -3.823240   -1.096494 H         1 <1>         0.061776 
     17 H          -2.424389   -3.127967    0.171308 H         1 <1>         0.061759 
     18 H          -2.442880   -1.018120    1.499473 H         1 <1>         0.061776 
     19 H          -0.354572    0.445785    1.608811 H         1 <1>         0.062344 
     20 H          -2.148142    2.102057   -1.227127 H         1 <1>         0.052972 
     21 H          -1.007573    3.448595   -1.502907 H         1 <1>         0.052972 
     22 H          -1.605118    3.089966    0.157519 H         1 <1>         0.052972 
@<TRIPOS>BOND
     1    1    2 1    
     2    1   10 2    
     3    1   11 1    
     4    2    3 2    
     5    2   13 1    
     6    3    4 1    
     7    3   14 1    
     8    4    5 1    
     9    4    9 2    
    10    5    6 2    
    11    5   15 1    
    12    6    7 1    
    13    6   16 1    
    14    7    8 2    
    15    7   17 1    
    16    8    9 1    
    17    8   18 1    
    18    9   19 1    
    19   11   12 1    
    20   12   20 1    
    21   12   21 1    
    22   12   22 1    
@<TRIPOS>SUBSTRUCTURE
     1 ****        1 TEMP              0 ****  ****    0 ROOT 
@<TRIPOS>NORMAL
@<TRIPOS>FF_PBC
FORCE_FIELD_SETUP_FEATURE Force Field Setup information
v1.0  0 0.000000 0.000000 0.000000 0.000000 0.000000 0.000000 NONE 0 0 0 0 1 0 0 0 0 0 0 0 0
