@<TRIPOS>MOLECULE
MOL012968
   40    41     1     1     0
SMALL
GASTEIGER


@<TRIPOS>ATOM
      1 C          -1.280116   -1.608118   -2.321154 C.3       1 <1>         0.109478 
      2 C          -0.568920   -2.750681   -1.550285 C.3       1 <1>         0.113986 
      3 C           0.833191   -2.986704   -2.163754 C.3       1 <1>         0.134616 
      4 C           1.624228   -1.651808   -2.137251 C.3       1 <1>         0.196715 
      5 O           0.913728   -0.628300   -2.859337 O.3       1 <1>        -0.342604 
      6 C          -0.385543   -0.340731   -2.305708 C.3       1 <1>         0.087321 
      7 O          -2.547294   -1.304783   -1.706978 O.3       1 <1>        -0.386579 
      8 O           1.829228   -1.263768   -0.764377 O.3       1 <1>        -0.278760 
      9 C          -1.014401    0.789445   -3.157976 C.3       1 <1>        -0.036060 
     10 O          -1.346532   -3.962634   -1.580009 O.3       1 <1>        -0.386402 
     11 O           0.650507   -3.489156   -3.504830 O.3       1 <1>        -0.384090 
     12 C           2.579869   -0.163165   -0.608769 C.2       1 <1>         0.288918 
     13 C           2.830915    0.346413    0.753421 C.2       1 <1>         0.010572 
     14 C           3.609813    1.404859    1.020220 C.2       1 <1>        -0.048934 
     15 C           3.906302    1.950737    2.404570 C.ar      1 <1>        -0.024693 
     16 H           4.070228    1.919951    0.176773 H         1 <1>         0.062525 
     17 O           3.068545    0.420876   -1.563565 O.2       1 <1>        -0.259796 
     18 H           2.325396   -0.213383    1.535010 H         1 <1>         0.067736 
     19 C           3.521081    1.255874    3.661761 C.ar      1 <1>        -0.052160 
     20 C           3.825325    1.820499    4.914296 C.ar      1 <1>        -0.031383 
     21 C           4.538971    3.113630    5.012260 C.ar      1 <1>         0.072617 
     22 C           4.916658    3.784244    3.825581 C.ar      1 <1>        -0.031383 
     23 C           4.594971    3.193673    2.504927 C.ar      1 <1>        -0.052160 
     24 O           4.824826    3.642801    6.273745 O.3       1 <1>        -0.359832 
     25 H          -1.428455   -1.916195   -3.370625 H         1 <1>         0.064584 
     26 H          -0.475636   -2.451369   -0.493265 H         1 <1>         0.064757 
     27 H           1.358820   -3.740845   -1.552345 H         1 <1>         0.067109 
     28 H           2.593045   -1.822981   -2.636304 H         1 <1>         0.094268 
     29 H          -0.293337    0.025667   -1.268749 H         1 <1>         0.062075 
     30 H          -3.119317   -2.066309   -1.675973 H         1 <1>         0.210002 
     31 H          -0.369872    1.681462   -3.124980 H         1 <1>         0.025536 
     32 H          -1.109601    0.466581   -4.205884 H         1 <1>         0.025536 
     33 H          -2.011248    1.059005   -2.776115 H         1 <1>         0.025536 
     34 H          -1.425451   -4.308369   -2.464518 H         1 <1>         0.210005 
     35 H           1.468916   -3.674542   -3.954829 H         1 <1>         0.210111 
     36 H           3.005251    0.304383    3.642544 H         1 <1>         0.062423 
     37 H           3.539278    1.308215    5.826657 H         1 <1>         0.064338 
     38 H           5.441945    4.732041    3.869633 H         1 <1>         0.064338 
     39 H           4.893398    3.727254    1.608458 H         1 <1>         0.062423 
     40 H           5.310586    4.459533    6.254519 H         1 <1>         0.217313 
@<TRIPOS>BOND
     1    1    2 1    
     2    1    6 1    
     3    1    7 1    
     4    1   25 1    
     5    2    3 1    
     6    2   10 1    
     7    2   26 1    
     8    3    4 1    
     9    3   11 1    
    10    3   27 1    
    11    4    5 1    
    12    4    8 1    
    13    4   28 1    
    14    5    6 1    
    15    6    9 1    
    16    6   29 1    
    17    7   30 1    
    18    8   12 1    
    19    9   31 1    
    20    9   32 1    
    21    9   33 1    
    22   10   34 1    
    23   11   35 1    
    24   12   13 1    
    25   12   17 2    
    26   13   14 2    
    27   13   18 1    
    28   14   15 1    
    29   14   16 1    
    30   15   19 1    
    31   15   23 2    
    32   19   20 2    
    33   19   36 1    
    34   20   21 1    
    35   20   37 1    
    36   21   22 2    
    37   21   24 1    
    38   22   23 1    
    39   22   38 1    
    40   23   39 1    
    41   24   40 1    
@<TRIPOS>SUBSTRUCTURE
     1 ****        1 TEMP              0 ****  ****    0 ROOT 
@<TRIPOS>NORMAL
@<TRIPOS>FF_PBC
FORCE_FIELD_SETUP_FEATURE Force Field Setup information
v1.0  0 0.000000 0.000000 0.000000 0.000000 0.000000 0.000000 NONE 0 0 0 0 1 0 0 0 0 0 0 0 0
