@<TRIPOS>MOLECULE
MOL003985
   25    26     1     1     0
SMALL
GASTEIGER


@<TRIPOS>ATOM
      1 C           0.749858    0.590341   -0.700935 C.3       1 <1>        -0.013504 
      2 C          -0.575385    1.280680   -0.523062 C.2       1 <1>        -0.073910 
      3 C          -1.729528    0.638529   -0.742678 C.2       1 <1>        -0.011800 
      4 C          -1.680961   -0.808928   -1.168193 C.3       1 <1>        -0.024658 
      5 C          -0.627280   -1.568613   -0.323945 C.3       1 <1>        -0.045072 
      6 C           0.783876   -0.953916   -0.525539 C.3       1 <1>        -0.028266 
      7 C           1.423969   -0.025431    0.542671 C.3       1 <1>        -0.024968 
      8 C           2.974290   -0.015857    0.553671 C.3       1 <1>        -0.058998 
      9 C           0.729994    0.175791    1.917023 C.3       1 <1>        -0.058998 
     10 C          -3.024044    1.330696   -0.565710 C.2       1 <1>         0.145962 
     11 O          -4.077728    0.758541   -0.792280 O.2       1 <1>        -0.296044 
     12 H           1.437186    1.001005   -1.457739 H         1 <1>         0.035125 
     13 H          -0.555566    2.324312   -0.209158 H         1 <1>         0.057872 
     14 H          -1.410521   -0.852875   -2.235242 H         1 <1>         0.031414 
     15 H          -2.660983   -1.296138   -1.040350 H         1 <1>         0.031414 
     16 H          -0.588721   -2.618432   -0.658038 H         1 <1>         0.027141 
     17 H          -0.928085   -1.582362    0.732904 H         1 <1>         0.027141 
     18 H           1.432084   -1.409200   -1.292329 H         1 <1>         0.031203 
     19 H           3.327183    0.955215    0.931562 H         1 <1>         0.023525 
     20 H           3.331120   -0.811004    1.225010 H         1 <1>         0.023525 
     21 H           3.407552   -0.179762   -0.444738 H         1 <1>         0.023525 
     22 H           1.192322    1.038422    2.419196 H         1 <1>         0.023525 
     23 H           0.901378   -0.720037    2.532081 H         1 <1>         0.023525 
     24 H          -0.350744    0.365805    1.862670 H         1 <1>         0.023525 
     25 H          -3.068116    2.366556   -0.231001 H         1 <1>         0.107793 
@<TRIPOS>BOND
     1    1    2 1    
     2    1    6 1    
     3    1    7 1    
     4    1   12 1    
     5    2    3 2    
     6    2   13 1    
     7    3    4 1    
     8    3   10 1    
     9    4    5 1    
    10    4   14 1    
    11    4   15 1    
    12    5    6 1    
    13    5   16 1    
    14    5   17 1    
    15    6    7 1    
    16    6   18 1    
    17    7    8 1    
    18    7    9 1    
    19    8   19 1    
    20    8   20 1    
    21    8   21 1    
    22    9   22 1    
    23    9   23 1    
    24    9   24 1    
    25   10   11 2    
    26   10   25 1    
@<TRIPOS>SUBSTRUCTURE
     1 ****        1 TEMP              0 ****  ****    0 ROOT 
@<TRIPOS>NORMAL
@<TRIPOS>FF_PBC
FORCE_FIELD_SETUP_FEATURE Force Field Setup information
v1.0  0 0.000000 0.000000 0.000000 0.000000 0.000000 0.000000 NONE 0 0 0 0 1 0 0 0 0 0 0 0 0
