@<TRIPOS>MOLECULE
MOL006958
   37    38     1     1     0
SMALL
GASTEIGER


@<TRIPOS>ATOM
      1 C          -2.069484   -3.089499    0.415558 C.ar      1 <1>        -0.031681 
      2 C          -3.327452   -3.291870   -0.339633 C.ar      1 <1>         0.072598 
      3 C          -3.931449   -2.183187   -0.999242 C.ar      1 <1>        -0.031681 
      4 C          -3.302522   -0.843084   -0.924109 C.ar      1 <1>        -0.056071 
      5 C          -2.102792   -0.657549   -0.197297 C.ar      1 <1>        -0.044984 
      6 C          -1.474759   -1.815502    0.485721 C.ar      1 <1>        -0.056071 
      7 O          -3.895267   -4.567472   -0.389227 O.3       1 <1>        -0.359832 
      8 C          -1.448478    0.725828   -0.113006 C.3       1 <1>        -0.000655 
      9 N           0.492724   -0.177257   -1.370398 N.am      1 <1>        -0.302154 
     10 C           1.771510   -0.021065   -0.971233 C.2       1 <1>         0.234207 
     11 N           1.457737    2.424885   -0.848124 N.am      1 <1>        -0.302219 
     12 C          -0.472107    0.917399   -1.300681 C.3       1 <1>         0.103359 
     13 C           0.178976    2.279702   -1.254028 C.2       1 <1>         0.234274 
     14 O          -0.479929    3.246072   -1.603247 O.2       1 <1>        -0.273751 
     15 C           2.249136    1.287133   -0.379317 C.3       1 <1>         0.101712 
     16 O           2.571000   -0.935824   -1.091537 O.2       1 <1>        -0.273752 
     17 C           2.291322    1.251977    1.180405 C.3       1 <1>        -0.019730 
     18 C           2.910785    2.555967    1.759881 C.3       1 <1>        -0.060525 
     19 C           3.080432    0.020706    1.710809 C.3       1 <1>        -0.060525 
     20 H          -1.609143   -3.935219    0.915033 H         1 <1>         0.064328 
     21 H          -4.852003   -2.307242   -1.559316 H         1 <1>         0.064328 
     22 H          -3.769637   -0.005384   -1.431490 H         1 <1>         0.062109 
     23 H          -0.551261   -1.682381    1.040414 H         1 <1>         0.062109 
     24 H          -4.706943   -4.613485   -0.881429 H         1 <1>         0.217313 
     25 H          -2.222807    1.509682   -0.130014 H         1 <1>         0.033588 
     26 H          -0.917493    0.808809    0.843311 H         1 <1>         0.033588 
     27 H           0.197812   -1.063809   -1.735629 H         1 <1>         0.149518 
     28 H           1.868385    3.339335   -0.858875 H         1 <1>         0.149517 
     29 H          -1.069098    0.897776   -2.229234 H         1 <1>         0.059770 
     30 H           3.283126    1.417048   -0.741731 H         1 <1>         0.059702 
     31 H           1.263149    1.177915    1.563986 H         1 <1>         0.031802 
     32 H           2.959179    2.506188    2.858893 H         1 <1>         0.023302 
     33 H           2.304303    3.435367    1.497085 H         1 <1>         0.023302 
     34 H           3.931373    2.701325    1.373984 H         1 <1>         0.023302 
     35 H           3.151040    0.048996    2.809282 H         1 <1>         0.023302 
     36 H           2.579017   -0.920485    1.438921 H         1 <1>         0.023302 
     37 H           4.100332    0.012286    1.296708 H         1 <1>         0.023302 
@<TRIPOS>BOND
     1    1    2 1    
     2    6    1 2    
     3    1   20 1    
     4    3    2 2    
     5    2    7 1    
     6    4    3 1    
     7    3   21 1    
     8    5    4 2    
     9    4   22 1    
    10    5    6 1    
    11    8    5 1    
    12    6   23 1    
    13    7   24 1    
    14   12    8 1    
    15    8   25 1    
    16    8   26 1    
    17   10    9 1    
    18    9   12 1    
    19    9   27 1    
    20   15   10 1    
    21   10   16 2    
    22   11   13 1    
    23   11   15 1    
    24   11   28 1    
    25   12   13 1    
    26   12   29 1    
    27   13   14 2    
    28   15   17 1    
    29   15   30 1    
    30   17   18 1    
    31   17   19 1    
    32   17   31 1    
    33   18   32 1    
    34   18   33 1    
    35   18   34 1    
    36   19   35 1    
    37   19   36 1    
    38   19   37 1    
@<TRIPOS>SUBSTRUCTURE
     1 ****       11 TEMP              0 ****  ****    0 ROOT 
@<TRIPOS>NORMAL
@<TRIPOS>FF_PBC
FORCE_FIELD_SETUP_FEATURE Force Field Setup information
v1.0  0 0.000000 0.000000 0.000000 0.000000 0.000000 0.000000 NONE 0 0 0 0 1 0 0 0 0 0 0 0 0
