@<TRIPOS>MOLECULE
MOL002181
   29    30     1     1     0
SMALL
GASTEIGER


@<TRIPOS>ATOM
      1 C          -1.002903    2.100508    1.352818 C.ar      1 <1>         0.078970 
      2 C          -2.272584    2.606501    1.931768 C.ar      1 <1>        -0.031545 
      3 C          -3.533261    2.342906    1.277132 C.ar      1 <1>        -0.058571 
      4 C          -3.567552    1.566818    0.011841 C.ar      1 <1>        -0.048367 
      5 C          -2.363553    1.117387   -0.484849 C.ar      1 <1>         0.054581 
      6 C          -1.078721    1.356304    0.167354 C.ar      1 <1>         0.024260 
      7 C          -2.004043    0.333319   -1.714837 C.2       1 <1>         0.294802 
      8 O          -0.683451    0.127697   -1.829096 O.3       1 <1>        -0.303273 
      9 C           0.006347    0.671804   -0.666976 C.3       1 <1>         0.096431 
     10 O          -2.818172   -0.067625   -2.529376 O.2       1 <1>        -0.259194 
     11 C           0.650228   -0.491157    0.130018 C.3       1 <1>        -0.021721 
     12 C           1.732040   -1.218714   -0.713354 C.3       1 <1>        -0.050629 
     13 C           2.378334   -2.385532    0.082112 C.3       1 <1>        -0.055820 
     14 C           3.461924   -3.108905   -0.759236 C.3       1 <1>        -0.065275 
     15 O           0.211210    2.363038    1.987438 O.3       1 <1>        -0.359454 
     16 H          -2.246119    3.176426    2.854219 H         1 <1>         0.064330 
     17 H          -4.457582    2.713323    1.708623 H         1 <1>         0.061857 
     18 H          -4.499447    1.363114   -0.504711 H         1 <1>         0.062539 
     19 H           0.758039    1.407561   -0.994397 H         1 <1>         0.065345 
     20 H           1.107531   -0.100613    1.052804 H         1 <1>         0.029363 
     21 H          -0.140684   -1.205116    0.412038 H         1 <1>         0.029363 
     22 H           1.272492   -1.616246   -1.633343 H         1 <1>         0.026610 
     23 H           2.514470   -0.497695   -1.002190 H         1 <1>         0.026610 
     24 H           2.840742   -1.993709    1.003563 H         1 <1>         0.026266 
     25 H           1.599801   -3.112247    0.368838 H         1 <1>         0.026266 
     26 H           3.907078   -3.931693   -0.177531 H         1 <1>         0.022978 
     27 H           3.019913   -3.528004   -1.676688 H         1 <1>         0.022978 
     28 H           4.262085   -2.406720   -1.041052 H         1 <1>         0.022978 
     29 H           0.945541    2.417368    1.386772 H         1 <1>         0.217326 
@<TRIPOS>BOND
     1    1    2 1    
     2    1    6 2    
     3    1   15 1    
     4    2    3 2    
     5    2   16 1    
     6    3    4 1    
     7    3   17 1    
     8    4    5 2    
     9    4   18 1    
    10    5    6 1    
    11    5    7 1    
    12    6    9 1    
    13    7    8 1    
    14    7   10 2    
    15    8    9 1    
    16    9   11 1    
    17    9   19 1    
    18   11   12 1    
    19   11   20 1    
    20   11   21 1    
    21   12   13 1    
    22   12   22 1    
    23   12   23 1    
    24   13   14 1    
    25   13   24 1    
    26   13   25 1    
    27   14   26 1    
    28   14   27 1    
    29   14   28 1    
    30   15   29 1    
@<TRIPOS>SUBSTRUCTURE
     1 ****        1 TEMP              0 ****  ****    0 ROOT 
@<TRIPOS>NORMAL
@<TRIPOS>FF_PBC
FORCE_FIELD_SETUP_FEATURE Force Field Setup information
v1.0  0 0.000000 0.000000 0.000000 0.000000 0.000000 0.000000 NONE 0 0 0 0 1 0 0 0 0 0 0 0 0
