@<TRIPOS>MOLECULE
MOL012959
   82    87     1     1     0
SMALL
GASTEIGER


@<TRIPOS>ATOM
      1 O           2.212230    2.055328    1.673039 O.3       1 <1>        -0.347600 
      2 O           1.753772    3.863932    0.195590 O.3       1 <1>        -0.341853 
      3 O          -1.349052    4.560360    1.045532 O.3       1 <1>        -0.385808 
      4 O          -1.513450   -4.965165   -1.875395 O.3       1 <1>        -0.391248 
      5 C           0.973459    0.387154    0.540081 C.3       1 <1>         0.008082 
      6 C           0.833256   -1.133326    0.122719 C.3       1 <1>        -0.020557 
      7 C          -0.406913    1.050774    0.811224 C.3       1 <1>        -0.022168 
      8 C          -0.043079    2.553597    1.004336 C.3       1 <1>         0.047510 
      9 C           0.060355   -1.891844    1.252875 C.3       1 <1>        -0.029356 
     10 C           1.436979    2.531811    0.582070 C.3       1 <1>         0.176775 
     11 C           1.581780    1.401714   -0.455900 C.3       1 <1>         0.010319 
     12 C           0.041400   -3.485038    1.111730 C.3       1 <1>        -0.025246 
     13 C           1.936076    0.657150    1.747755 C.3       1 <1>         0.057503 
     14 C          -1.181927    0.331147    1.940310 C.3       1 <1>        -0.048815 
     15 C          -1.303265   -1.182543    1.574285 C.3       1 <1>        -0.048911 
     16 C           2.241689   -1.813003    0.043925 C.3       1 <1>        -0.046476 
     17 C           1.102553   -4.125656    0.070447 C.3       1 <1>        -0.027845 
     18 C          -0.642503    3.699669    0.119499 C.3       1 <1>         0.097611 
     19 C           2.162302   -3.189239   -0.633702 C.3       1 <1>        -0.048617 
     20 C           0.097560   -1.270859   -1.256993 C.3       1 <1>        -0.058701 
     21 C           0.623800    4.379171   -0.519702 C.3       1 <1>         0.094142 
     22 C           0.707033   -5.399779   -0.822051 C.3       1 <1>        -0.005589 
     23 C          -1.413470   -3.975670    0.798674 C.3       1 <1>        -0.044730 
     24 C           0.349970   -4.008041    2.569741 C.3       1 <1>        -0.059019 
     25 C          -0.829649   -5.743219   -0.868083 C.3       1 <1>         0.060637 
     26 C          -1.517682   -5.486212    0.487502 C.3       1 <1>        -0.025831 
     27 C          -1.650089    3.281233   -0.993064 C.3       1 <1>        -0.033167 
     28 C           0.685862    5.925259   -0.438611 C.3       1 <1>        -0.005301 
     29 C           1.466931   -6.682270   -0.316013 C.3       1 <1>        -0.057190 
     30 C           1.102803   -5.262818   -2.338316 C.3       1 <1>        -0.057190 
     31 C          -0.323117    6.583695   -1.356990 C.2       1 <1>        -0.082754 
     32 C          -1.253798    7.504877   -1.064596 C.2       1 <1>        -0.079535 
     33 C          -2.145255    8.040393   -2.174528 C.3       1 <1>        -0.044048 
     34 C          -1.525502    8.101520    0.304891 C.3       1 <1>        -0.044048 
     35 H          -1.773420    5.308069    0.646260 H         1 <1>         0.210274 
     36 H          -2.440349   -5.148246   -1.959910 H         1 <1>         0.209800 
     37 H          -1.052407    0.976216   -0.061038 H         1 <1>         0.031230 
     38 H          -0.057147    2.836469    2.070174 H         1 <1>         0.038442 
     39 H           0.644038   -1.645477    2.154514 H         1 <1>         0.031156 
     40 H           2.644452    1.246023   -0.708150 H         1 <1>         0.032341 
     41 H           1.010597    1.564251   -1.385754 H         1 <1>         0.032341 
     42 H           2.921223    0.196451    1.609290 H         1 <1>         0.056658 
     43 H           1.555362    0.391444    2.737525 H         1 <1>         0.056658 
     44 H          -2.193972    0.765818    2.034667 H         1 <1>         0.026833 
     45 H          -0.703143    0.463055    2.923046 H         1 <1>         0.026833 
     46 H          -1.804291   -1.662490    2.427889 H         1 <1>         0.026837 
     47 H          -1.975012   -1.246414    0.707008 H         1 <1>         0.026837 
     48 H           2.935063   -1.187247   -0.541351 H         1 <1>         0.027088 
     49 H           2.685250   -1.986443    1.041216 H         1 <1>         0.027088 
     50 H           1.813898   -4.555995    0.795320 H         1 <1>         0.031210 
     51 H           3.158563   -3.662568   -0.658000 H         1 <1>         0.026846 
     52 H           1.976131   -2.966477   -1.687306 H         1 <1>         0.026846 
     53 H          -0.163217   -2.308371   -1.485569 H         1 <1>         0.023534 
     54 H           0.764379   -0.907032   -2.053510 H         1 <1>         0.023534 
     55 H          -0.854284   -0.741159   -1.331131 H         1 <1>         0.023534 
     56 H           0.749099    4.077489   -1.573195 H         1 <1>         0.062876 
     57 H          -2.089759   -3.809909    1.653283 H         1 <1>         0.027149 
     58 H          -1.818599   -3.418253   -0.052673 H         1 <1>         0.027149 
     59 H           1.347579   -3.676328    2.904240 H         1 <1>         0.023525 
     60 H          -0.375359   -3.617366    3.299998 H         1 <1>         0.023525 
     61 H           0.362019   -5.100889    2.660006 H         1 <1>         0.023525 
     62 H          -0.972419   -6.807186   -1.143547 H         1 <1>         0.059852 
     63 H          -2.582008   -5.771295    0.393382 H         1 <1>         0.029037 
     64 H          -1.091910   -6.123411    1.279951 H         1 <1>         0.029037 
     65 H          -2.528834    2.793992   -0.547550 H         1 <1>         0.025817 
     66 H          -1.983264    4.173379   -1.540170 H         1 <1>         0.025817 
     67 H          -1.196925    2.597473   -1.721598 H         1 <1>         0.025817 
     68 H           1.679118    6.251800   -0.785317 H         1 <1>         0.033335 
     69 H           0.616188    6.192675    0.620236 H         1 <1>         0.033335 
     70 H           1.255456   -7.572428   -0.926972 H         1 <1>         0.023587 
     71 H           2.556036   -6.527639   -0.344535 H         1 <1>         0.023587 
     72 H           1.183361   -6.909716    0.721470 H         1 <1>         0.023587 
     73 H           2.190628   -5.191568   -2.481877 H         1 <1>         0.023587 
     74 H           0.616195   -4.400541   -2.819211 H         1 <1>         0.023587 
     75 H           0.773011   -6.134910   -2.914071 H         1 <1>         0.023587 
     76 H          -0.251626    6.238875   -2.392513 H         1 <1>         0.057228 
     77 H          -2.394221    9.103812   -2.006373 H         1 <1>         0.027427 
     78 H          -3.077828    7.453275   -2.195599 H         1 <1>         0.027427 
     79 H          -1.669248    7.963527   -3.168200 H         1 <1>         0.027427 
     80 H          -0.975039    7.656401    1.141634 H         1 <1>         0.027427 
     81 H          -2.595393    8.000731    0.530203 H         1 <1>         0.027427 
     82 H          -1.281681    9.172863    0.286344 H         1 <1>         0.027427 
@<TRIPOS>BOND
     1    1   10 1    
     2   13    1 1    
     3   10    2 1    
     4    2   21 1    
     5   18    3 1    
     6    3   35 1    
     7   25    4 1    
     8    4   36 1    
     9    6    5 1    
    10    5    7 1    
    11    5   11 1    
    12    5   13 1    
    13    9    6 1    
    14   16    6 1    
    15    6   20 1    
    16    7    8 1    
    17   14    7 1    
    18    7   37 1    
    19   10    8 1    
    20    8   18 1    
    21    8   38 1    
    22   12    9 1    
    23    9   15 1    
    24    9   39 1    
    25   11   10 1    
    26   11   40 1    
    27   11   41 1    
    28   17   12 1    
    29   12   23 1    
    30   12   24 1    
    31   13   42 1    
    32   13   43 1    
    33   15   14 1    
    34   14   44 1    
    35   14   45 1    
    36   15   46 1    
    37   15   47 1    
    38   19   16 1    
    39   16   48 1    
    40   16   49 1    
    41   17   19 1    
    42   22   17 1    
    43   17   50 1    
    44   18   21 1    
    45   18   27 1    
    46   19   51 1    
    47   19   52 1    
    48   20   53 1    
    49   20   54 1    
    50   20   55 1    
    51   21   28 1    
    52   21   56 1    
    53   22   25 1    
    54   22   29 1    
    55   22   30 1    
    56   23   26 1    
    57   23   57 1    
    58   23   58 1    
    59   24   59 1    
    60   24   60 1    
    61   24   61 1    
    62   25   26 1    
    63   25   62 1    
    64   26   63 1    
    65   26   64 1    
    66   27   65 1    
    67   27   66 1    
    68   27   67 1    
    69   28   31 1    
    70   28   68 1    
    71   28   69 1    
    72   29   70 1    
    73   29   71 1    
    74   29   72 1    
    75   30   73 1    
    76   30   74 1    
    77   30   75 1    
    78   31   32 2    
    79   31   76 1    
    80   32   33 1    
    81   32   34 1    
    82   33   77 1    
    83   33   78 1    
    84   33   79 1    
    85   34   80 1    
    86   34   81 1    
    87   34   82 1    
@<TRIPOS>SUBSTRUCTURE
     1 ****        5 TEMP              0 ****  ****    0 ROOT 
@<TRIPOS>NORMAL
@<TRIPOS>FF_PBC
FORCE_FIELD_SETUP_FEATURE Force Field Setup information
v1.0  0 0.000000 0.000000 0.000000 0.000000 0.000000 0.000000 NONE 0 0 0 0 1 0 0 0 0 0 0 0 0
