@<TRIPOS>MOLECULE
MOL001898
   13    12     1     1     0
SMALL
GASTEIGER


@<TRIPOS>ATOM
      1 C          -1.161712    0.491645    0.000021 C.2       1 <1>         0.266172 
      2 O          -0.000023   -0.173725    0.000002 O.3       1 <1>        -0.244705 
      3 C          -2.394130   -0.370423    0.000121 C.3       1 <1>         0.021886 
      4 O          -1.260739    1.708048   -0.000028 O.2       1 <1>        -0.264813 
      5 C           1.161977    0.491071   -0.000023 C.2       1 <1>         0.266172 
      6 C           2.393929   -0.371650   -0.000119 C.3       1 <1>         0.021886 
      7 O           1.261638    1.707357    0.000016 O.2       1 <1>        -0.264813 
      8 H          -2.134176   -1.439902   -0.000071 H         1 <1>         0.033036 
      9 H          -2.992746   -0.149646    0.896144 H         1 <1>         0.033036 
     10 H          -2.993070   -0.149405   -0.895624 H         1 <1>         0.033036 
     11 H           2.133443   -1.441016    0.000098 H         1 <1>         0.033036 
     12 H           2.992681   -0.151215   -0.896161 H         1 <1>         0.033036 
     13 H           2.993026   -0.150938    0.895624 H         1 <1>         0.033036 
@<TRIPOS>BOND
     1    1    2 1    
     2    1    3 1    
     3    1    4 2    
     4    2    5 1    
     5    3    8 1    
     6    3    9 1    
     7    3   10 1    
     8    5    6 1    
     9    5    7 2    
    10    6   11 1    
    11    6   12 1    
    12    6   13 1    
@<TRIPOS>SUBSTRUCTURE
     1 ****        1 TEMP              0 ****  ****    0 ROOT 
@<TRIPOS>NORMAL
@<TRIPOS>FF_PBC
FORCE_FIELD_SETUP_FEATURE Force Field Setup information
v1.0  0 0.000000 0.000000 0.000000 0.000000 0.000000 0.000000 NONE 0 0 0 0 1 0 0 0 0 0 0 0 0
