@<TRIPOS>MOLECULE
MOL013429
   45    46     1     1     0
SMALL
GASTEIGER


@<TRIPOS>ATOM
      1 O           1.104210   -1.086897    0.521745 O.3       1 <1>        -0.309981 
      2 C           0.511701   -1.582493   -0.687102 C.3       1 <1>         0.193752 
      3 C           0.450298   -3.126452   -0.574617 C.3       1 <1>         0.134511 
      4 O           1.784034   -3.673056   -0.568642 O.3       1 <1>        -0.384091 
      5 C          -0.354015   -3.717548   -1.757909 C.3       1 <1>         0.114074 
      6 O          -0.503407   -5.134103   -1.546837 O.3       1 <1>        -0.386401 
      7 C          -1.738616   -3.033956   -1.861769 C.3       1 <1>         0.111896 
      8 O          -2.380491   -3.534672   -3.050103 O.3       1 <1>        -0.386488 
      9 C          -1.559540   -1.493399   -1.918255 C.3       1 <1>         0.113017 
     10 O          -0.816837   -1.029190   -0.772666 O.3       1 <1>        -0.340166 
     11 C          -2.937796   -0.785932   -1.899131 C.3       1 <1>         0.073015 
     12 O          -3.770289   -1.315989   -2.950605 O.3       1 <1>        -0.392366 
     13 C           1.222805    0.280668    0.805332 C.ar      1 <1>         0.109316 
     14 C           1.661387    0.693757    2.161580 C.ar      1 <1>         0.106040 
     15 O           1.964249   -0.266453    3.129669 O.3       1 <1>        -0.345331 
     16 C           0.822178   -0.952617    3.668585 C.3       1 <1>         0.043136 
     17 C           1.780560    2.049739    2.486629 C.ar      1 <1>        -0.025672 
     18 C           1.475969    3.103177    1.488294 C.ar      1 <1>        -0.041049 
     19 C           1.618654    4.577281    1.890854 C.3       1 <1>        -0.009646 
     20 C           0.655990    5.478144    1.157211 C.2       1 <1>        -0.086800 
     21 C           1.048769    6.499658    0.385146 C.2       1 <1>        -0.102320 
     22 C           1.069780    2.717789    0.194208 C.ar      1 <1>        -0.055677 
     23 C           0.937143    1.284380   -0.158965 C.ar      1 <1>        -0.028759 
     24 H           1.141109   -1.308810   -1.549531 H         1 <1>         0.094161 
     25 H          -0.066974   -3.368731    0.369883 H         1 <1>         0.067108 
     26 H           1.775038   -4.623277   -0.494483 H         1 <1>         0.210111 
     27 H           0.211006   -3.533891   -2.688332 H         1 <1>         0.064758 
     28 H          -1.009399   -5.544362   -2.242880 H         1 <1>         0.210005 
     29 H          -2.326429   -3.302424   -0.967159 H         1 <1>         0.064673 
     30 H          -3.225211   -3.116538   -3.204075 H         1 <1>         0.210004 
     31 H          -1.047708   -1.225194   -2.857683 H         1 <1>         0.064668 
     32 H          -3.408367   -0.957943   -0.916322 H         1 <1>         0.058370 
     33 H          -2.781947    0.299921   -2.026207 H         1 <1>         0.058370 
     34 H          -4.628685   -0.901113   -2.984852 H         1 <1>         0.209508 
     35 H           1.177145   -1.673876    4.421553 H         1 <1>         0.052871 
     36 H           0.143395   -0.235088    4.155786 H         1 <1>         0.052871 
     37 H           0.275000   -1.501342    2.886808 H         1 <1>         0.052871 
     38 H           2.104342    2.323628    3.484390 H         1 <1>         0.064693 
     39 H           1.412735    4.681366    2.967417 H         1 <1>         0.035544 
     40 H           2.665594    4.867722    1.714025 H         1 <1>         0.035544 
     41 H          -0.409599    5.272258    1.271471 H         1 <1>         0.056955 
     42 H           0.314532    7.122864   -0.126535 H         1 <1>         0.053184 
     43 H           2.103552    6.736092    0.245604 H         1 <1>         0.053184 
     44 H           0.851880    3.469447   -0.557407 H         1 <1>         0.062119 
     45 H           0.619330    1.029615   -1.162472 H         1 <1>         0.064421 
@<TRIPOS>BOND
     1    1    2 1    
     2    1   13 1    
     3    2    3 1    
     4    2   10 1    
     5    2   24 1    
     6    3    4 1    
     7    3    5 1    
     8    3   25 1    
     9    4   26 1    
    10    5    6 1    
    11    5    7 1    
    12    5   27 1    
    13    6   28 1    
    14    7    8 1    
    15    7    9 1    
    16    7   29 1    
    17    8   30 1    
    18    9   10 1    
    19    9   11 1    
    20    9   31 1    
    21   11   12 1    
    22   11   32 1    
    23   11   33 1    
    24   12   34 1    
    25   13   14 1    
    26   13   23 2    
    27   14   15 1    
    28   14   17 2    
    29   15   16 1    
    30   16   35 1    
    31   16   36 1    
    32   16   37 1    
    33   17   18 1    
    34   17   38 1    
    35   18   19 1    
    36   18   22 2    
    37   19   20 1    
    38   19   39 1    
    39   19   40 1    
    40   20   21 2    
    41   20   41 1    
    42   21   42 1    
    43   21   43 1    
    44   22   23 1    
    45   22   44 1    
    46   23   45 1    
@<TRIPOS>SUBSTRUCTURE
     1 ****        1 TEMP              0 ****  ****    0 ROOT 
@<TRIPOS>NORMAL
@<TRIPOS>FF_PBC
FORCE_FIELD_SETUP_FEATURE Force Field Setup information
v1.0  0 0.000000 0.000000 0.000000 0.000000 0.000000 0.000000 NONE 0 0 0 0 1 0 0 0 0 0 0 0 0
