@<TRIPOS>MOLECULE
MOL004810
   44    47     1     1     0
SMALL
GASTEIGER


@<TRIPOS>ATOM
      1 O          -2.016397   -1.183009    0.641175 O.3       1 <1>        -0.333832 
      2 O           2.389599   -0.694807    1.769083 O.3       1 <1>        -0.342797 
      3 O           1.259183    1.214979   -1.670282 O.2       1 <1>        -0.291153 
      4 O          -4.424028    3.016964   -0.094974 O.3       1 <1>        -0.359161 
      5 O           3.799497    1.510724   -2.397790 O.3       1 <1>        -0.358966 
      6 O           7.160751   -0.404975    0.686205 O.3       1 <1>        -0.359667 
      7 C           0.591578    0.054338    0.277981 C.3       1 <1>         0.073496 
      8 C          -0.727328    0.841465    0.231883 C.ar      1 <1>        -0.003861 
      9 C          -3.100488   -1.897612    0.015956 C.3       1 <1>         0.088849 
     10 C          -1.961613    0.183802    0.362789 C.ar      1 <1>         0.090775 
     11 C           1.177808    0.078461    1.707714 C.3       1 <1>         0.068180 
     12 C          -3.220716    0.939894    0.210809 C.ar      1 <1>         0.034768 
     13 C           1.619355    0.613833   -0.672681 C.2       1 <1>         0.177728 
     14 C           3.084880    0.404693   -0.362800 C.ar      1 <1>         0.077794 
     15 C          -4.430507   -1.179356    0.156008 C.2       1 <1>        -0.051917 
     16 C          -0.719463    2.316680    0.048862 C.ar      1 <1>        -0.052895 
     17 C          -4.507234    0.151455    0.250646 C.2       1 <1>        -0.050894 
     18 C           3.409384   -0.297214    0.900838 C.ar      1 <1>         0.091610 
     19 C          -3.181919   -3.292423    0.689787 C.3       1 <1>        -0.031936 
     20 C          -2.759007   -2.056761   -1.485792 C.3       1 <1>        -0.031936 
     21 C          -3.215112    2.327629    0.025334 C.ar      1 <1>         0.082178 
     22 C          -1.914352    3.036025   -0.042983 C.ar      1 <1>        -0.030919 
     23 C           4.113671    0.837837   -1.216345 C.ar      1 <1>         0.087987 
     24 C           4.741718   -0.562482    1.226750 C.ar      1 <1>        -0.001053 
     25 C           5.527624    0.567328   -0.852034 C.ar      1 <1>        -0.001314 
     26 C           5.837586   -0.123627    0.331733 C.ar      1 <1>         0.077503 
     27 H           0.414056   -0.990521   -0.023501 H         1 <1>         0.045323 
     28 H           1.379469    1.114736    2.023486 H         1 <1>         0.057526 
     29 H           0.458779   -0.361942    2.415970 H         1 <1>         0.057526 
     30 H          -5.355342   -1.757682    0.158141 H         1 <1>         0.060053 
     31 H           0.224467    2.849421   -0.006846 H         1 <1>         0.062209 
     32 H          -5.461974    0.672938    0.340024 H         1 <1>         0.062283 
     33 H          -2.205363   -3.796442    0.632479 H         1 <1>         0.026052 
     34 H          -3.454815   -3.180662    1.750763 H         1 <1>         0.026052 
     35 H          -3.932827   -3.924462    0.190662 H         1 <1>         0.026052 
     36 H          -2.631112   -1.070036   -1.955023 H         1 <1>         0.026052 
     37 H          -1.820577   -2.620526   -1.593874 H         1 <1>         0.026052 
     38 H          -3.562827   -2.598285   -2.004075 H         1 <1>         0.026052 
     39 H          -1.886826    4.112641   -0.162116 H         1 <1>         0.064349 
     40 H           4.975992   -1.085895    2.145571 H         1 <1>         0.066931 
     41 H           6.322537    0.905434   -1.505908 H         1 <1>         0.066923 
     42 H          -4.327664    3.960667   -0.142473 H         1 <1>         0.217339 
     43 H           4.525736    1.598785   -3.005126 H         1 <1>         0.217342 
     44 H           7.803022   -0.233811    0.004873 H         1 <1>         0.217316 
@<TRIPOS>BOND
     1    1    9 1    
     2   10    1 1    
     3    2   11 1    
     4   18    2 1    
     5   13    3 2    
     6   21    4 1    
     7    4   42 1    
     8   23    5 1    
     9    5   43 1    
    10   26    6 1    
    11    6   44 1    
    12    7    8 1    
    13   11    7 1    
    14   13    7 1    
    15    7   27 1    
    16    8   10 2    
    17    8   16 1    
    18    9   15 1    
    19    9   19 1    
    20    9   20 1    
    21   10   12 1    
    22   11   28 1    
    23   11   29 1    
    24   12   17 1    
    25   12   21 2    
    26   14   13 1    
    27   18   14 1    
    28   14   23 2    
    29   17   15 2    
    30   15   30 1    
    31   16   22 2    
    32   16   31 1    
    33   17   32 1    
    34   24   18 2    
    35   19   33 1    
    36   19   34 1    
    37   19   35 1    
    38   20   36 1    
    39   20   37 1    
    40   20   38 1    
    41   22   21 1    
    42   22   39 1    
    43   23   25 1    
    44   24   26 1    
    45   24   40 1    
    46   25   26 2    
    47   25   41 1    
@<TRIPOS>SUBSTRUCTURE
     1 ****        7 TEMP              0 ****  ****    0 ROOT 
@<TRIPOS>NORMAL
@<TRIPOS>FF_PBC
FORCE_FIELD_SETUP_FEATURE Force Field Setup information
v1.0  0 0.000000 0.000000 0.000000 0.000000 0.000000 0.000000 NONE 0 0 0 0 1 0 0 0 0 0 0 0 0
