@<TRIPOS>MOLECULE
MOL003507
   24    23     1     1     0
SMALL
GASTEIGER


@<TRIPOS>ATOM
      1 C           3.614842   -0.024575    0.000102 C.3       1 <1>         0.044206 
      2 C           2.257418    0.722675   -0.000113 C.3       1 <1>        -0.029718 
      3 C           1.058552   -0.265088    0.000096 C.3       1 <1>        -0.050987 
      4 C          -0.297634    0.492192   -0.000128 C.3       1 <1>        -0.052994 
      5 C          -1.497538   -0.494401    0.000089 C.3       1 <1>        -0.053305 
      6 C          -2.853226    0.263536   -0.000136 C.3       1 <1>        -0.055911 
      7 C          -4.050444   -0.722446    0.000088 C.3       1 <1>        -0.065276 
      8 O           4.670478    0.953251   -0.000118 O.3       1 <1>        -0.395007 
      9 H           3.686379   -0.662582    0.897821 H         1 <1>         0.055696 
     10 H           3.686423   -0.663035   -0.897308 H         1 <1>         0.055696 
     11 H           2.209373    1.367325   -0.893094 H         1 <1>         0.028724 
     12 H           2.209329    1.367767    0.892534 H         1 <1>         0.028724 
     13 H           1.116713   -0.908052    0.893746 H         1 <1>         0.026599 
     14 H           1.116759   -0.908503   -0.893236 H         1 <1>         0.026599 
     15 H          -0.355477    1.135417   -0.893641 H         1 <1>         0.026529 
     16 H          -0.355520    1.135869    0.893067 H         1 <1>         0.026529 
     17 H          -1.441107   -1.137812    0.893632 H         1 <1>         0.026520 
     18 H          -1.441060   -1.138273   -0.893118 H         1 <1>         0.026520 
     19 H          -2.916631    0.906761   -0.893789 H         1 <1>         0.026265 
     20 H          -2.916675    0.907220    0.893184 H         1 <1>         0.026265 
     21 H          -5.000656   -0.165242   -0.000078 H         1 <1>         0.022978 
     22 H          -4.020481   -1.363010    0.895262 H         1 <1>         0.022978 
     23 H          -4.020442   -1.363467   -0.894762 H         1 <1>         0.022978 
     24 H           5.540527    0.564974   -0.000003 H         1 <1>         0.209395 
@<TRIPOS>BOND
     1    1    2 1    
     2    1    8 1    
     3    1    9 1    
     4    1   10 1    
     5    2    3 1    
     6    2   11 1    
     7    2   12 1    
     8    3    4 1    
     9    3   13 1    
    10    3   14 1    
    11    4    5 1    
    12    4   15 1    
    13    4   16 1    
    14    5    6 1    
    15    5   17 1    
    16    5   18 1    
    17    6    7 1    
    18    6   19 1    
    19    6   20 1    
    20    7   21 1    
    21    7   22 1    
    22    7   23 1    
    23    8   24 1    
@<TRIPOS>SUBSTRUCTURE
     1 ****        1 TEMP              0 ****  ****    0 ROOT 
@<TRIPOS>NORMAL
@<TRIPOS>FF_PBC
FORCE_FIELD_SETUP_FEATURE Force Field Setup information
v1.0  0 0.000000 0.000000 0.000000 0.000000 0.000000 0.000000 NONE 0 0 0 0 1 0 0 0 0 0 0 0 0
