@<TRIPOS>MOLECULE
MOL004895
   80    84     1     1     0
SMALL
GASTEIGER


@<TRIPOS>ATOM
      1 C           3.653819   -4.006912   -1.250491 C.3       1 <1>         0.053721 
      2 C           4.954062   -3.223767   -1.607137 C.3       1 <1>        -0.038057 
      3 C           4.669985   -1.727614   -1.969685 C.3       1 <1>        -0.046118 
      4 C           3.793258   -0.949575   -0.921421 C.3       1 <1>        -0.025442 
      5 C           2.500769   -1.786984   -0.684809 C.3       1 <1>        -0.012608 
      6 C           2.853900   -3.214604   -0.165756 C.3       1 <1>        -0.031522 
      7 C           3.326317    0.437818   -1.509366 C.3       1 <1>        -0.046277 
      8 C           1.894535    0.975830   -1.115504 C.3       1 <1>        -0.042869 
      9 C           1.283933    0.401585    0.210395 C.3       1 <1>        -0.004332 
     10 C           1.239379   -1.082878   -0.181251 C.2       1 <1>        -0.056185 
     11 C          -0.181108    0.916208    0.625264 C.3       1 <1>        -0.012656 
     12 C          -1.370106    0.319595   -0.200757 C.3       1 <1>         0.033332 
     13 C          -1.235567   -1.171465    0.006090 C.2       1 <1>         0.160199 
     14 C           0.083921   -1.768158   -0.220801 C.2       1 <1>        -0.018839 
     15 C          -0.278207    2.459334    0.353442 C.3       1 <1>        -0.045876 
     16 C          -1.565312    3.178785    0.842571 C.3       1 <1>        -0.048587 
     17 C          -2.793083    2.235788    0.970805 C.3       1 <1>        -0.027446 
     18 C          -2.789171    1.068734   -0.089836 C.3       1 <1>        -0.018250 
     19 C          -4.147748    2.957861    1.356333 C.3       1 <1>        -0.005578 
     20 C          -5.188523    1.857809    1.741191 C.3       1 <1>         0.060638 
     21 C          -5.309849    0.758424    0.650667 C.3       1 <1>        -0.025820 
     22 C          -3.935016    0.095099    0.347004 C.3       1 <1>        -0.044330 
     23 O           1.576775   -4.676865   -2.299439 O.3       1 <1>        -0.330857 
     24 C           4.015159   -5.421279   -0.710152 C.3       1 <1>        -0.050480 
     25 C           2.815796   -4.220724   -2.499736 C.2       1 <1>         0.265560 
     26 O           3.234870   -3.989346   -3.623422 O.2       1 <1>        -0.264567 
     27 C          -3.128264    1.617569   -1.516731 C.3       1 <1>        -0.058618 
     28 C          -0.421776    0.459577    2.116170 C.3       1 <1>        -0.058099 
     29 C           2.249876    0.837690    1.372526 C.3       1 <1>        -0.055302 
     30 C           4.704397   -0.806913    0.356646 C.3       1 <1>        -0.059016 
     31 C          -3.921040    3.842794    2.633123 C.3       1 <1>        -0.057190 
     32 C          -4.764062    3.923522    0.287733 C.3       1 <1>        -0.057190 
     33 O          -6.468814    2.472113    1.976464 O.3       1 <1>        -0.391248 
     34 O          -2.144708   -1.923847    0.322274 O.2       1 <1>        -0.292347 
     35 H           5.453606   -3.705044   -2.465109 H         1 <1>         0.027550 
     36 H           5.662287   -3.335522   -0.774228 H         1 <1>         0.027550 
     37 H           5.628964   -1.199144   -2.101989 H         1 <1>         0.027098 
     38 H           4.171841   -1.733835   -2.951732 H         1 <1>         0.027098 
     39 H           2.125489   -1.938573   -1.711535 H         1 <1>         0.035146 
     40 H           1.962965   -3.805041    0.088233 H         1 <1>         0.028121 
     41 H           3.439964   -3.144162    0.761801 H         1 <1>         0.028121 
     42 H           4.090046    1.199943   -1.291393 H         1 <1>         0.027096 
     43 H           3.312986    0.379557   -2.609197 H         1 <1>         0.027096 
     44 H           1.979563    2.073435   -1.068711 H         1 <1>         0.027392 
     45 H           1.190378    0.752452   -1.934277 H         1 <1>         0.027392 
     46 H          -1.036174    0.393315   -1.244175 H         1 <1>         0.039170 
     47 H           0.036375   -2.822168   -0.485199 H         1 <1>         0.065218 
     48 H           0.579613    3.030753    0.734609 H         1 <1>         0.027107 
     49 H          -0.254314    2.594774   -0.738672 H         1 <1>         0.027107 
     50 H          -1.783289    4.020148    0.165379 H         1 <1>         0.026846 
     51 H          -1.335111    3.618231    1.828114 H         1 <1>         0.026846 
     52 H          -2.615292    1.729010    1.915081 H         1 <1>         0.031221 
     53 H          -4.861482    1.371096    2.678775 H         1 <1>         0.059852 
     54 H          -5.991254   -0.022224    1.031825 H         1 <1>         0.029038 
     55 H          -5.784966    1.154784   -0.256322 H         1 <1>         0.029038 
     56 H          -4.089903   -0.673301   -0.427852 H         1 <1>         0.027160 
     57 H          -3.651815   -0.403358    1.287314 H         1 <1>         0.027160 
     58 H           1.104403   -4.781435   -3.118368 H         1 <1>         0.220226 
     59 H           3.100494   -5.999384   -0.508399 H         1 <1>         0.023986 
     60 H           4.617384   -5.972144   -1.449329 H         1 <1>         0.023986 
     61 H           4.590758   -5.350919    0.225532 H         1 <1>         0.023986 
     62 H          -3.077400    0.802683   -2.255628 H         1 <1>         0.023535 
     63 H          -4.132889    2.025774   -1.615822 H         1 <1>         0.023535 
     64 H          -2.424911    2.407894   -1.818050 H         1 <1>         0.023535 
     65 H          -1.410219    0.032579    2.319845 H         1 <1>         0.023553 
     66 H           0.213482   -0.389034    2.399641 H         1 <1>         0.023553 
     67 H          -0.247341    1.286188    2.821059 H         1 <1>         0.023553 
     68 H           2.379642    0.039189    2.112983 H         1 <1>         0.023829 
     69 H           1.894915    1.703261    1.942194 H         1 <1>         0.023829 
     70 H           3.229317    1.172669    1.022133 H         1 <1>         0.023829 
     71 H           4.148785   -0.960164    1.282425 H         1 <1>         0.023525 
     72 H           5.216804    0.165204    0.395228 H         1 <1>         0.023525 
     73 H           5.519624   -1.531725    0.432816 H         1 <1>         0.023525 
     74 H          -4.880699    4.182341    3.050290 H         1 <1>         0.023587 
     75 H          -3.337941    4.742998    2.389131 H         1 <1>         0.023587 
     76 H          -3.399362    3.304160    3.439489 H         1 <1>         0.023587 
     77 H          -3.992601    4.516461   -0.217893 H         1 <1>         0.023587 
     78 H          -5.455034    4.635882    0.765479 H         1 <1>         0.023587 
     79 H          -5.370593    3.422701   -0.471130 H         1 <1>         0.023587 
     80 H          -7.135555    1.858451    2.270070 H         1 <1>         0.209800 
@<TRIPOS>BOND
     1    1    2 1    
     2    1    6 1    
     3    1   24 1    
     4    1   25 1    
     5    2    3 1    
     6    2   35 1    
     7    2   36 1    
     8    3    4 1    
     9    3   37 1    
    10    3   38 1    
    11    4    5 1    
    12    4    7 1    
    13    4   30 1    
    14    5    6 1    
    15    5   10 1    
    16    5   39 1    
    17    6   40 1    
    18    6   41 1    
    19    7    8 1    
    20    7   42 1    
    21    7   43 1    
    22    8    9 1    
    23    8   44 1    
    24    8   45 1    
    25    9   10 1    
    26    9   11 1    
    27    9   29 1    
    28   10   14 2    
    29   11   12 1    
    30   11   15 1    
    31   11   28 1    
    32   12   13 1    
    33   12   18 1    
    34   12   46 1    
    35   13   14 1    
    36   13   34 2    
    37   14   47 1    
    38   15   16 1    
    39   15   48 1    
    40   15   49 1    
    41   16   17 1    
    42   16   50 1    
    43   16   51 1    
    44   17   18 1    
    45   17   19 1    
    46   17   52 1    
    47   18   22 1    
    48   18   27 1    
    49   19   20 1    
    50   19   31 1    
    51   19   32 1    
    52   20   21 1    
    53   20   33 1    
    54   20   53 1    
    55   21   22 1    
    56   21   54 1    
    57   21   55 1    
    58   22   56 1    
    59   22   57 1    
    60   25   23 1    
    61   23   58 1    
    62   24   59 1    
    63   24   60 1    
    64   24   61 1    
    65   25   26 2    
    66   27   62 1    
    67   27   63 1    
    68   27   64 1    
    69   28   65 1    
    70   28   66 1    
    71   28   67 1    
    72   29   68 1    
    73   29   69 1    
    74   29   70 1    
    75   30   71 1    
    76   30   72 1    
    77   30   73 1    
    78   31   74 1    
    79   31   75 1    
    80   31   76 1    
    81   32   77 1    
    82   32   78 1    
    83   32   79 1    
    84   33   80 1    
@<TRIPOS>SUBSTRUCTURE
     1 ****        1 TEMP              0 ****  ****    0 ROOT 
@<TRIPOS>NORMAL
@<TRIPOS>FF_PBC
FORCE_FIELD_SETUP_FEATURE Force Field Setup information
v1.0  0 0.000000 0.000000 0.000000 0.000000 0.000000 0.000000 NONE 0 0 0 0 1 0 0 0 0 0 0 0 0
