@<TRIPOS>MOLECULE
MOL000269
   31    31     1     1     0
SMALL
GASTEIGER


@<TRIPOS>ATOM
      1 C           1.103541    0.968362   -0.285788 C.ar      1 <1>         0.135652 
      2 C           1.591278   -0.347968    0.201630 C.ar      1 <1>         0.108469 
      3 C          -0.293149    1.109594   -0.654828 C.ar      1 <1>         0.108469 
      4 O           2.022153    2.029837   -0.368133 O.3       1 <1>        -0.342951 
      5 C           0.686855   -1.454338    0.285887 C.ar      1 <1>        -0.025507 
      6 O           2.940482   -0.469633    0.571345 O.3       1 <1>        -0.345245 
      7 C          -1.196458   -0.061368   -0.569820 C.ar      1 <1>        -0.025507 
      8 O          -0.811049    2.329934   -1.093354 O.3       1 <1>        -0.345245 
      9 C           1.741541    3.247731   -1.075078 C.3       1 <1>         0.043242 
     10 C          -0.732828   -1.302855   -0.113999 C.ar      1 <1>        -0.038610 
     11 C           3.501949   -1.702106    1.050455 C.3       1 <1>         0.043137 
     12 C          -1.702244    2.967589   -0.162250 C.3       1 <1>         0.043137 
     13 C          -1.705047   -2.485424   -0.037562 C.3       1 <1>        -0.009566 
     14 C          -2.741266   -2.178924    1.015380 C.2       1 <1>        -0.086799 
     15 C          -4.043065   -2.028502    0.741244 C.2       1 <1>        -0.102320 
     16 H           1.019876   -2.420405    0.641273 H         1 <1>         0.064695 
     17 H          -2.232886    0.047398   -0.869156 H         1 <1>         0.064695 
     18 H           2.673624    3.830170   -1.109265 H         1 <1>         0.052872 
     19 H           0.986996    3.852313   -0.552316 H         1 <1>         0.052872 
     20 H           1.420910    3.041986   -2.107964 H         1 <1>         0.052872 
     21 H           4.565883   -1.522421    1.263946 H         1 <1>         0.052871 
     22 H           3.430881   -2.492528    0.287703 H         1 <1>         0.052871 
     23 H           3.012226   -2.025165    1.981796 H         1 <1>         0.052871 
     24 H          -2.010693    3.932588   -0.590548 H         1 <1>         0.052871 
     25 H          -2.603249    2.362371    0.018910 H         1 <1>         0.052871 
     26 H          -1.193480    3.154154    0.796601 H         1 <1>         0.052871 
     27 H          -1.182588   -3.414370    0.237538 H         1 <1>         0.035545 
     28 H          -2.153056   -2.633114   -1.032667 H         1 <1>         0.035545 
     29 H          -2.400650   -2.073921    2.047200 H         1 <1>         0.056955 
     30 H          -4.754438   -1.805905    1.536986 H         1 <1>         0.053184 
     31 H          -4.429830   -2.121429   -0.273234 H         1 <1>         0.053184 
@<TRIPOS>BOND
     1    1    2 1    
     2    1    3 2    
     3    1    4 1    
     4    2    5 2    
     5    2    6 1    
     6    3    7 1    
     7    3    8 1    
     8    4    9 1    
     9    5   10 1    
    10    5   16 1    
    11    6   11 1    
    12    7   10 2    
    13    7   17 1    
    14    8   12 1    
    15    9   18 1    
    16    9   19 1    
    17    9   20 1    
    18   10   13 1    
    19   11   21 1    
    20   11   22 1    
    21   11   23 1    
    22   12   24 1    
    23   12   25 1    
    24   12   26 1    
    25   13   14 1    
    26   13   27 1    
    27   13   28 1    
    28   14   15 2    
    29   14   29 1    
    30   15   30 1    
    31   15   31 1    
@<TRIPOS>SUBSTRUCTURE
     1 ****        1 TEMP              0 ****  ****    0 ROOT 
@<TRIPOS>NORMAL
@<TRIPOS>FF_PBC
FORCE_FIELD_SETUP_FEATURE Force Field Setup information
v1.0  0 0.000000 0.000000 0.000000 0.000000 0.000000 0.000000 NONE 0 0 0 0 1 0 0 0 0 0 0 0 0
