@<TRIPOS>MOLECULE
MOL004606
   47    46     1     1     0
SMALL
GASTEIGER


@<TRIPOS>ATOM
      1 C           0.111196   -1.476367   -1.464578 C.3       1 <1>        -0.043879 
      2 C           1.482614   -0.793272   -1.157398 C.3       1 <1>        -0.050451 
      3 C           1.546533   -0.022710    0.192429 C.3       1 <1>        -0.052574 
      4 C           2.944637    0.618260    0.412469 C.3       1 <1>        -0.050451 
      5 C           3.052487    1.529075    1.676918 C.3       1 <1>        -0.043888 
      6 C          -1.029031   -0.431393   -1.668067 C.3       1 <1>        -0.050459 
      7 C           2.734663    0.779017    3.011774 C.3       1 <1>        -0.050708 
      8 C          -2.335888   -1.045203   -2.245906 C.3       1 <1>        -0.052824 
      9 C          -0.256159   -2.541734   -0.392022 C.3       1 <1>        -0.062415 
     10 C           4.485834    2.135764    1.728829 C.3       1 <1>        -0.062415 
     11 C          -3.385105    0.056543   -2.562644 C.3       1 <1>        -0.053297 
     12 C           1.266269    0.963580    3.495434 C.3       1 <1>        -0.055669 
     13 C          -4.695948   -0.553910   -3.129944 C.3       1 <1>        -0.055911 
     14 C           0.989346    0.134659    4.777364 C.3       1 <1>        -0.065268 
     15 C          -5.738432    0.548588   -3.451230 C.3       1 <1>        -0.065276 
     16 H           0.247582   -2.009685   -2.422832 H         1 <1>         0.029813 
     17 H           1.719539   -0.095233   -1.977337 H         1 <1>         0.026785 
     18 H           2.268758   -1.566937   -1.150508 H         1 <1>         0.026785 
     19 H           1.347344   -0.731008    1.009280 H         1 <1>         0.026545 
     20 H           0.791222    0.777268    0.209171 H         1 <1>         0.026545 
     21 H           3.179470    1.230499   -0.473981 H         1 <1>         0.026785 
     22 H           3.698947   -0.183138    0.475079 H         1 <1>         0.026785 
     23 H           2.353549    2.375704    1.561701 H         1 <1>         0.029813 
     24 H          -1.271116    0.059339   -0.712860 H         1 <1>         0.026785 
     25 H          -0.675219    0.341669   -2.369517 H         1 <1>         0.026785 
     26 H           2.975446   -0.290263    2.903721 H         1 <1>         0.026777 
     27 H           3.369679    1.169143    3.824006 H         1 <1>         0.026777 
     28 H          -2.105626   -1.599377   -3.170413 H         1 <1>         0.026537 
     29 H          -2.777129   -1.746191   -1.520325 H         1 <1>         0.026537 
     30 H          -1.057385   -3.204135   -0.752299 H         1 <1>         0.023242 
     31 H           0.615918   -3.173277   -0.162527 H         1 <1>         0.023242 
     32 H          -0.599019   -2.064483    0.538032 H         1 <1>         0.023242 
     33 H           4.574997    2.855762    2.557757 H         1 <1>         0.023242 
     34 H           4.721993    2.669852    0.795058 H         1 <1>         0.023242 
     35 H           5.231931    1.339290    1.874770 H         1 <1>         0.023242 
     36 H          -3.614017    0.618472   -1.642062 H         1 <1>         0.026520 
     37 H          -2.966829    0.760198   -3.301223 H         1 <1>         0.026520 
     38 H           1.088251    2.029546    3.716920 H         1 <1>         0.026273 
     39 H           0.544003    0.660573    2.724243 H         1 <1>         0.026273 
     40 H          -4.472406   -1.117369   -4.051305 H         1 <1>         0.026265 
     41 H          -5.127028   -1.253243   -2.394127 H         1 <1>         0.026265 
     42 H          -0.048095    0.289621    5.114087 H         1 <1>         0.022978 
     43 H           1.134811   -0.938590    4.577613 H         1 <1>         0.022978 
     44 H           1.668778    0.438362    5.589076 H         1 <1>         0.022978 
     45 H          -6.659071    0.094896   -3.851285 H         1 <1>         0.022978 
     46 H          -5.993417    1.113305   -2.540897 H         1 <1>         0.022978 
     47 H          -5.338875    1.248733   -4.201444 H         1 <1>         0.022978 
@<TRIPOS>BOND
     1    1    2 1    
     2    1    6 1    
     3    1    9 1    
     4    1   16 1    
     5    2    3 1    
     6    2   17 1    
     7    2   18 1    
     8    3    4 1    
     9    3   19 1    
    10    3   20 1    
    11    4    5 1    
    12    4   21 1    
    13    4   22 1    
    14    5    7 1    
    15    5   10 1    
    16    5   23 1    
    17    6    8 1    
    18    6   24 1    
    19    6   25 1    
    20    7   12 1    
    21    7   26 1    
    22    7   27 1    
    23    8   11 1    
    24    8   28 1    
    25    8   29 1    
    26    9   30 1    
    27    9   31 1    
    28    9   32 1    
    29   10   33 1    
    30   10   34 1    
    31   10   35 1    
    32   11   13 1    
    33   11   36 1    
    34   11   37 1    
    35   12   14 1    
    36   12   38 1    
    37   12   39 1    
    38   13   15 1    
    39   13   40 1    
    40   13   41 1    
    41   14   42 1    
    42   14   43 1    
    43   14   44 1    
    44   15   45 1    
    45   15   46 1    
    46   15   47 1    
@<TRIPOS>SUBSTRUCTURE
     1 ****        1 TEMP              0 ****  ****    0 ROOT 
@<TRIPOS>NORMAL
@<TRIPOS>FF_PBC
FORCE_FIELD_SETUP_FEATURE Force Field Setup information
v1.0  0 0.000000 0.000000 0.000000 0.000000 0.000000 0.000000 NONE 0 0 0 0 1 0 0 0 0 0 0 0 0
