@<TRIPOS>MOLECULE
MOL002272
   59    64     1     1     0
SMALL
GASTEIGER


@<TRIPOS>ATOM
      1 C          -1.009612   -1.419852    1.023735 C.ar      1 <1>        -0.025769 
      2 C          -0.724113   -2.820042    0.625596 C.ar      1 <1>         0.055780 
      3 C          -1.709847   -3.792453    0.746649 C.ar      1 <1>         0.083665 
      4 C          -3.018723   -3.426673    1.335844 C.ar      1 <1>        -0.031220 
      5 C          -3.251510   -2.169934    1.759358 C.ar      1 <1>        -0.059013 
      6 C          -2.213523   -1.124011    1.602590 C.ar      1 <1>        -0.057128 
      7 C           0.025437   -0.313169    0.759421 C.3       1 <1>         0.021577 
      8 C           1.479568   -0.811326    0.776461 C.ar      1 <1>        -0.025441 
      9 C           1.795770   -2.205487    0.381880 C.ar      1 <1>         0.055799 
     10 C           0.655222   -3.158063    0.112988 C.2       1 <1>         0.198626 
     11 C           2.495189    0.031316    1.127281 C.ar      1 <1>        -0.051767 
     12 C           3.910120   -0.406746    1.048083 C.ar      1 <1>        -0.019442 
     13 C           4.197983   -1.661980    0.631013 C.ar      1 <1>        -0.025865 
     14 C           3.117526   -2.613636    0.283632 C.ar      1 <1>         0.083995 
     15 C          -0.260055    0.311356   -0.639255 C.3       1 <1>         0.021588 
     16 C           0.753706    1.437490   -0.899785 C.ar      1 <1>        -0.025769 
     17 C           0.445989    2.829083   -0.486748 C.ar      1 <1>         0.055780 
     18 C          -0.930990    3.131795    0.057798 C.2       1 <1>         0.198627 
     19 C          -2.055944    2.173854   -0.254359 C.ar      1 <1>         0.055821 
     20 C          -1.719449    0.790864   -0.669294 C.ar      1 <1>        -0.025032 
     21 C           1.956965    1.166849   -1.491683 C.ar      1 <1>        -0.057128 
     22 C           2.969943    2.235579   -1.654894 C.ar      1 <1>        -0.059013 
     23 C           2.712897    3.485965   -1.224995 C.ar      1 <1>        -0.031220 
     24 C           1.396148    3.815610   -0.621024 C.ar      1 <1>         0.083665 
     25 C          -3.386020    2.566027   -0.174719 C.ar      1 <1>         0.084406 
     26 C          -4.450089    1.608862   -0.556723 C.ar      1 <1>        -0.018357 
     27 C          -4.141425    0.361521   -0.986034 C.ar      1 <1>         0.049022 
     28 C          -2.720106   -0.058552   -1.050355 C.ar      1 <1>        -0.044250 
     29 O          -1.167715    4.135060    0.711921 O.2       1 <1>        -0.286459 
     30 O           1.109356    5.118552   -0.208731 O.3       1 <1>        -0.359114 
     31 O          -3.754735    3.849549    0.241426 O.3       1 <1>        -0.359093 
     32 O           0.855151   -4.208929   -0.477011 O.2       1 <1>        -0.286459 
     33 O           3.464580   -3.907847   -0.118271 O.3       1 <1>        -0.359104 
     34 O          -1.496830   -5.116077    0.347014 O.3       1 <1>        -0.359114 
     35 C           5.030127    0.572711    1.424384 C.3       1 <1>         0.069320 
     36 O           5.420031    1.326684    0.264980 O.3       1 <1>        -0.390415 
     37 C          -5.228533   -0.612691   -1.387247 C.2       1 <1>         0.291326 
     38 O          -6.509896   -0.239281   -1.337734 O.3       1 <1>        -0.327489 
     39 O          -4.923879   -1.738073   -1.751662 O.2       1 <1>        -0.259428 
     40 H          -3.785965   -4.188460    1.429957 H         1 <1>         0.064340 
     41 H          -4.206448   -1.913922    2.208658 H         1 <1>         0.061846 
     42 H          -2.434502   -0.114244    1.934200 H         1 <1>         0.062069 
     43 H          -0.089598    0.462195    1.534652 H         1 <1>         0.040672 
     44 H           2.277473    1.045139    1.446875 H         1 <1>         0.062412 
     45 H           5.227464   -1.993290    0.549531 H         1 <1>         0.064686 
     46 H          -0.129216   -0.461397   -1.414738 H         1 <1>         0.040672 
     47 H           2.195524    0.163471   -1.830065 H         1 <1>         0.062069 
     48 H           3.925378    2.001844   -2.114553 H         1 <1>         0.061846 
     49 H           3.471183    4.255715   -1.329757 H         1 <1>         0.064340 
     50 H          -5.484091    1.929673   -0.490486 H         1 <1>         0.065115 
     51 H          -2.483255   -1.063433   -1.384754 H         1 <1>         0.062839 
     52 H           1.828364    5.728522   -0.325689 H         1 <1>         0.217340 
     53 H          -3.039375    4.374069    0.590561 H         1 <1>         0.217340 
     54 H           2.740664   -4.425054   -0.459564 H         1 <1>         0.217340 
     55 H          -0.696283   -5.255068   -0.150524 H         1 <1>         0.217340 
     56 H           4.662613    1.281481    2.182308 H         1 <1>         0.060711 
     57 H           5.893862    0.040307    1.856920 H         1 <1>         0.060711 
     58 H           5.758292    0.774168   -0.433135 H         1 <1>         0.209847 
     59 H          -7.099899   -0.933616   -1.611226 H         1 <1>         0.220555 
@<TRIPOS>BOND
     1    1    2 1    
     2    1    6 2    
     3    1    7 1    
     4    2    3 2    
     5    2   10 1    
     6    3    4 1    
     7    3   34 1    
     8    4    5 2    
     9    4   40 1    
    10    5    6 1    
    11    5   41 1    
    12    6   42 1    
    13    7    8 1    
    14    7   15 1    
    15    7   43 1    
    16    8    9 1    
    17    8   11 2    
    18    9   10 1    
    19    9   14 2    
    20   10   32 2    
    21   11   12 1    
    22   11   44 1    
    23   12   13 2    
    24   12   35 1    
    25   13   14 1    
    26   13   45 1    
    27   14   33 1    
    28   15   16 1    
    29   15   20 1    
    30   15   46 1    
    31   16   17 1    
    32   16   21 2    
    33   17   18 1    
    34   17   24 2    
    35   18   19 1    
    36   18   29 2    
    37   19   20 1    
    38   19   25 2    
    39   20   28 2    
    40   21   22 1    
    41   21   47 1    
    42   22   23 2    
    43   22   48 1    
    44   23   24 1    
    45   23   49 1    
    46   24   30 1    
    47   25   26 1    
    48   25   31 1    
    49   26   27 2    
    50   26   50 1    
    51   27   28 1    
    52   27   37 1    
    53   28   51 1    
    54   30   52 1    
    55   31   53 1    
    56   33   54 1    
    57   34   55 1    
    58   35   36 1    
    59   35   56 1    
    60   35   57 1    
    61   36   58 1    
    62   37   38 1    
    63   37   39 2    
    64   38   59 1    
@<TRIPOS>SUBSTRUCTURE
     1 ****        1 TEMP              0 ****  ****    0 ROOT 
@<TRIPOS>NORMAL
@<TRIPOS>FF_PBC
FORCE_FIELD_SETUP_FEATURE Force Field Setup information
v1.0  0 0.000000 0.000000 0.000000 0.000000 0.000000 0.000000 NONE 0 0 0 0 1 0 0 0 0 0 0 0 0
