@<TRIPOS>MOLECULE
MOL002253
   59    64     1     1     0
SMALL
GASTEIGER


@<TRIPOS>ATOM
      1 C          -1.830814    2.322220    0.347423 C.ar      1 <1>         0.055942 
      2 C          -1.528177    0.928089    0.756580 C.ar      1 <1>        -0.023342 
      3 C          -0.113950    0.356446    0.565715 C.3       1 <1>         0.021656 
      4 C           0.991816    1.420312    0.643448 C.ar      1 <1>        -0.025520 
      5 C           0.718979    2.816948    0.228851 C.ar      1 <1>         0.055797 
      6 C          -0.697084    3.201798   -0.127931 C.2       1 <1>         0.198628 
      7 C          -0.042535   -0.341605   -0.826108 C.3       1 <1>         0.021577 
      8 C           1.421986   -0.691282   -1.135453 C.ar      1 <1>        -0.025769 
      9 C           1.981862   -2.002465   -0.726457 C.ar      1 <1>         0.055780 
     10 C           1.047730   -3.028805   -0.129356 C.2       1 <1>         0.198626 
     11 C          -0.436346   -2.886704   -0.374478 C.ar      1 <1>         0.055797 
     12 C          -0.968498   -1.567921   -0.796605 C.ar      1 <1>        -0.025521 
     13 C          -3.118395    2.795995    0.424016 C.ar      1 <1>         0.086101 
     14 C          -4.190453    1.914827    0.953733 C.ar      1 <1>        -0.001452 
     15 C          -3.911807    0.668396    1.373612 C.ar      1 <1>         0.075334 
     16 C          -2.522158    0.153778    1.283692 C.ar      1 <1>        -0.027311 
     17 C           2.229977    0.214700   -1.765188 C.ar      1 <1>        -0.057128 
     18 C           3.665474   -0.081149   -1.979332 C.ar      1 <1>        -0.059013 
     19 C           4.186318   -1.249144   -1.558621 C.ar      1 <1>        -0.031220 
     20 C           3.320368   -2.267262   -0.909423 C.ar      1 <1>         0.083665 
     21 C           2.245377    1.078629    1.067277 C.ar      1 <1>        -0.054207 
     22 C           3.350511    2.065770    1.051624 C.ar      1 <1>        -0.047703 
     23 C           3.112481    3.327444    0.617329 C.ar      1 <1>        -0.028304 
     24 C           1.755440    3.740078    0.189148 C.ar      1 <1>         0.083914 
     25 C          -1.296941   -3.964367   -0.228361 C.ar      1 <1>         0.083914 
     26 C          -2.731489   -3.793761   -0.554036 C.ar      1 <1>        -0.028304 
     27 C          -3.208451   -2.606453   -0.997925 C.ar      1 <1>        -0.047703 
     28 C          -2.287210   -1.450851   -1.130726 C.ar      1 <1>        -0.054207 
     29 O          -0.891773    4.225438   -0.763987 O.2       1 <1>        -0.286459 
     30 O           1.456472   -3.980692    0.516618 O.2       1 <1>        -0.286459 
     31 O          -0.849053   -5.218078    0.201382 O.3       1 <1>        -0.359105 
     32 O           1.554606    5.060089   -0.228580 O.3       1 <1>        -0.359105 
     33 O          -3.405770    4.102211    0.021404 O.3       1 <1>        -0.359031 
     34 O           3.849918   -3.493688   -0.501654 O.3       1 <1>        -0.359114 
     35 C           4.740462    1.619809    1.518852 C.3       1 <1>        -0.039620 
     36 C          -4.694433   -2.463502   -1.345238 C.3       1 <1>        -0.039620 
     37 O          -4.941451   -0.128076    1.878533 O.3       1 <1>        -0.359741 
     38 H           0.077027   -0.386960    1.357643 H         1 <1>         0.040673 
     39 H          -0.396873    0.356449   -1.602661 H         1 <1>         0.040672 
     40 H          -5.212024    2.273204    1.011900 H         1 <1>         0.066922 
     41 H          -2.306707   -0.853953    1.623182 H         1 <1>         0.064633 
     42 H           1.837551    1.170488   -2.097557 H         1 <1>         0.062069 
     43 H           4.295664    0.655034   -2.469682 H         1 <1>         0.061846 
     44 H           5.243499   -1.447615   -1.703238 H         1 <1>         0.064340 
     45 H           2.455512    0.067702    1.400791 H         1 <1>         0.062331 
     46 H           3.911710    4.059066    0.581585 H         1 <1>         0.064604 
     47 H          -3.397954   -4.641273   -0.437252 H         1 <1>         0.064604 
     48 H          -2.678213   -0.499445   -1.476476 H         1 <1>         0.062331 
     49 H           0.052781   -5.232381    0.509906 H         1 <1>         0.217340 
     50 H           0.694520    5.229806   -0.602957 H         1 <1>         0.217340 
     51 H          -4.322189    4.340965    0.100160 H         1 <1>         0.217341 
     52 H           4.782398   -3.583631   -0.659846 H         1 <1>         0.217340 
     53 H           5.430481    2.468227    1.642735 H         1 <1>         0.027754 
     54 H           4.651152    1.098141    2.483864 H         1 <1>         0.027754 
     55 H           5.157415    0.925644    0.773570 H         1 <1>         0.027754 
     56 H          -4.955432   -3.180127   -2.138925 H         1 <1>         0.027754 
     57 H          -5.299597   -2.678280   -0.451287 H         1 <1>         0.027754 
     58 H          -4.932083   -1.447680   -1.694263 H         1 <1>         0.027754 
     59 H          -4.675424   -1.018947    2.076722 H         1 <1>         0.217315 
@<TRIPOS>BOND
     1    1    2 1    
     2    1    6 1    
     3    1   13 2    
     4    2    3 1    
     5    2   16 2    
     6    3    4 1    
     7    3    7 1    
     8    3   38 1    
     9    4    5 1    
    10    4   21 2    
    11    5    6 1    
    12    5   24 2    
    13    6   29 2    
    14    7    8 1    
    15    7   12 1    
    16    7   39 1    
    17    8    9 1    
    18    8   17 2    
    19    9   10 1    
    20    9   20 2    
    21   10   11 1    
    22   10   30 2    
    23   11   12 1    
    24   11   25 2    
    25   12   28 2    
    26   13   14 1    
    27   13   33 1    
    28   14   15 2    
    29   14   40 1    
    30   15   16 1    
    31   15   37 1    
    32   16   41 1    
    33   17   18 1    
    34   17   42 1    
    35   18   19 2    
    36   18   43 1    
    37   19   20 1    
    38   19   44 1    
    39   20   34 1    
    40   21   22 1    
    41   21   45 1    
    42   22   23 2    
    43   22   35 1    
    44   23   24 1    
    45   23   46 1    
    46   24   32 1    
    47   25   26 1    
    48   25   31 1    
    49   26   27 2    
    50   26   47 1    
    51   27   28 1    
    52   27   36 1    
    53   28   48 1    
    54   31   49 1    
    55   32   50 1    
    56   33   51 1    
    57   34   52 1    
    58   35   53 1    
    59   35   54 1    
    60   35   55 1    
    61   36   56 1    
    62   36   57 1    
    63   36   58 1    
    64   37   59 1    
@<TRIPOS>SUBSTRUCTURE
     1 ****        1 TEMP              0 ****  ****    0 ROOT 
@<TRIPOS>NORMAL
@<TRIPOS>FF_PBC
FORCE_FIELD_SETUP_FEATURE Force Field Setup information
v1.0  0 0.000000 0.000000 0.000000 0.000000 0.000000 0.000000 NONE 0 0 0 0 1 0 0 0 0 0 0 0 0
