@<TRIPOS>MOLECULE
MOL002513
   38    38     1     1     0
SMALL
GASTEIGER


@<TRIPOS>ATOM
      1 C           0.520223   -1.339056    1.086680 C.ar      1 <1>        -0.042078 
      2 C           0.952501   -2.757624    1.024514 C.ar      1 <1>        -0.028243 
      3 C           1.547858   -0.211470    0.856792 C.3       1 <1>        -0.018324 
      4 C          -0.835211   -1.079250    1.369223 C.ar      1 <1>        -0.057910 
      5 C           0.059473   -3.815737    1.266787 C.ar      1 <1>         0.075741 
      6 C           1.441052    0.423884   -0.565627 C.3       1 <1>        -0.043012 
      7 C           1.544877    0.821679    2.016326 C.3       1 <1>        -0.058387 
      8 C          -1.790031   -2.185576    1.613378 C.ar      1 <1>        -0.056136 
      9 C          -1.364066   -3.525773    1.576938 C.ar      1 <1>        -0.020723 
     10 O           0.532276   -5.127321    1.201296 O.3       1 <1>        -0.359562 
     11 C           0.399545    1.564617   -0.732935 C.3       1 <1>        -0.033986 
     12 C          -2.352937   -4.668981    1.843157 C.3       1 <1>        -0.037274 
     13 C           0.387779    2.124316   -2.137736 C.2       1 <1>        -0.085268 
     14 C          -0.051796    3.349690   -2.469276 C.2       1 <1>        -0.079617 
     15 C          -0.005678    3.849529   -3.898125 C.3       1 <1>        -0.044050 
     16 C          -0.622692    4.330632   -1.466288 C.3       1 <1>        -0.044050 
     17 H           1.981591   -3.002892    0.789865 H         1 <1>         0.064610 
     18 H           2.542727   -0.689955    0.900064 H         1 <1>         0.034622 
     19 H          -1.205083   -0.064527    1.420519 H         1 <1>         0.062048 
     20 H           2.420771    0.851600   -0.837098 H         1 <1>         0.027392 
     21 H           1.220466   -0.381042   -1.284712 H         1 <1>         0.027392 
     22 H           2.340431    1.568116    1.862396 H         1 <1>         0.023554 
     23 H           1.727275    0.313476    2.974728 H         1 <1>         0.023554 
     24 H           0.584957    1.346313    2.097605 H         1 <1>         0.023554 
     25 H          -2.828115   -1.945537    1.822008 H         1 <1>         0.062108 
     26 H           0.132739   -5.692134    1.852001 H         1 <1>         0.217325 
     27 H          -0.613869    1.205437   -0.510675 H         1 <1>         0.030758 
     28 H           0.660924    2.375380   -0.039137 H         1 <1>         0.030758 
     29 H          -2.290309   -5.409599    1.030728 H         1 <1>         0.027833 
     30 H          -2.100717   -5.148748    2.800776 H         1 <1>         0.027833 
     31 H          -3.391102   -4.308918    1.899313 H         1 <1>         0.027833 
     32 H           0.764506    1.475120   -2.927851 H         1 <1>         0.057145 
     33 H           0.526984    3.168951   -4.579967 H         1 <1>         0.027427 
     34 H          -1.034314    3.972559   -4.271715 H         1 <1>         0.027427 
     35 H           0.500549    4.827375   -3.929075 H         1 <1>         0.027427 
     36 H          -1.054696    3.845978   -0.578923 H         1 <1>         0.027427 
     37 H          -1.426763    4.923803   -1.928126 H         1 <1>         0.027427 
     38 H           0.177780    5.015884   -1.147829 H         1 <1>         0.027427 
@<TRIPOS>BOND
     1    1    2 1    
     2    1    3 1    
     3    1    4 2    
     4    2    5 2    
     5    2   17 1    
     6    3    6 1    
     7    3    7 1    
     8    3   18 1    
     9    4    8 1    
    10    4   19 1    
    11    5    9 1    
    12    5   10 1    
    13    6   11 1    
    14    6   20 1    
    15    6   21 1    
    16    7   22 1    
    17    7   23 1    
    18    7   24 1    
    19    8    9 2    
    20    8   25 1    
    21    9   12 1    
    22   10   26 1    
    23   11   13 1    
    24   11   27 1    
    25   11   28 1    
    26   12   29 1    
    27   12   30 1    
    28   12   31 1    
    29   13   14 2    
    30   13   32 1    
    31   14   15 1    
    32   14   16 1    
    33   15   33 1    
    34   15   34 1    
    35   15   35 1    
    36   16   36 1    
    37   16   37 1    
    38   16   38 1    
@<TRIPOS>SUBSTRUCTURE
     1 ****        1 TEMP              0 ****  ****    0 ROOT 
@<TRIPOS>NORMAL
@<TRIPOS>FF_PBC
FORCE_FIELD_SETUP_FEATURE Force Field Setup information
v1.0  0 0.000000 0.000000 0.000000 0.000000 0.000000 0.000000 NONE 0 0 0 0 1 0 0 0 0 0 0 0 0
