@<TRIPOS>MOLECULE
MOL002137
   26    25     1     1     0
SMALL
GASTEIGER


@<TRIPOS>ATOM
      1 C          -0.670155   -0.392784   -0.000119 C.3       1 <1>        -0.053065 
      2 C           0.670155    0.392784    0.000119 C.3       1 <1>        -0.053065 
      3 C          -1.890854    0.568085    0.000118 C.3       1 <1>        -0.053306 
      4 C           1.890854   -0.568085   -0.000118 C.3       1 <1>        -0.053306 
      5 C          -3.230605   -0.217665   -0.000121 C.3       1 <1>        -0.055911 
      6 C           3.230605    0.217665    0.000121 C.3       1 <1>        -0.055911 
      7 C          -4.448578    0.742655    0.000110 C.3       1 <1>        -0.065276 
      8 C           4.448578   -0.742655   -0.000110 C.3       1 <1>        -0.065276 
      9 H          -0.714421   -1.037142   -0.893568 H         1 <1>         0.026528 
     10 H          -0.714457   -1.037625    0.892975 H         1 <1>         0.026528 
     11 H           0.714421    1.037142    0.893568 H         1 <1>         0.026528 
     12 H           0.714457    1.037625   -0.892975 H         1 <1>         0.026528 
     13 H          -1.847745    1.212507    0.893578 H         1 <1>         0.026520 
     14 H          -1.847709    1.212991   -0.893001 H         1 <1>         0.026520 
     15 H           1.847745   -1.212507   -0.893578 H         1 <1>         0.026520 
     16 H           1.847709   -1.212991    0.893001 H         1 <1>         0.026520 
     17 H          -3.280664   -0.862027   -0.893706 H         1 <1>         0.026265 
     18 H          -3.280701   -0.862504    0.893108 H         1 <1>         0.026265 
     19 H           3.280664    0.862027    0.893706 H         1 <1>         0.026265 
     20 H           3.280701    0.862504   -0.893108 H         1 <1>         0.026265 
     21 H          -5.386722    0.165198   -0.000065 H         1 <1>         0.022978 
     22 H          -4.432526    1.383741    0.895283 H         1 <1>         0.022978 
     23 H          -4.432490    1.384223   -0.894722 H         1 <1>         0.022978 
     24 H           5.386722   -0.165198    0.000065 H         1 <1>         0.022978 
     25 H           4.432526   -1.383741   -0.895283 H         1 <1>         0.022978 
     26 H           4.432490   -1.384223    0.894722 H         1 <1>         0.022978 
@<TRIPOS>BOND
     1    1    2 1    
     2    1    3 1    
     3    1    9 1    
     4    1   10 1    
     5    2    4 1    
     6    2   11 1    
     7    2   12 1    
     8    3    5 1    
     9    3   13 1    
    10    3   14 1    
    11    4    6 1    
    12    4   15 1    
    13    4   16 1    
    14    5    7 1    
    15    5   17 1    
    16    5   18 1    
    17    6    8 1    
    18    6   19 1    
    19    6   20 1    
    20    7   21 1    
    21    7   22 1    
    22    7   23 1    
    23    8   24 1    
    24    8   25 1    
    25    8   26 1    
@<TRIPOS>SUBSTRUCTURE
     1 ****        1 TEMP              0 ****  ****    0 ROOT 
@<TRIPOS>NORMAL
@<TRIPOS>FF_PBC
FORCE_FIELD_SETUP_FEATURE Force Field Setup information
v1.0  0 0.000000 0.000000 0.000000 0.000000 0.000000 0.000000 NONE 0 0 0 0 1 0 0 0 0 0 0 0 0
