@<TRIPOS>MOLECULE
MOL000223
   21    21     1     1     0
SMALL
GASTEIGER


@<TRIPOS>ATOM
      1 C           0.190753   -0.036999    0.010192 C.ar      1 <1>        -0.022259 
      2 C           0.810275   -1.341361    0.358672 C.ar      1 <1>        -0.022249 
      3 C          -1.238267    0.047482   -0.014456 C.ar      1 <1>        -0.051998 
      4 C           1.117148    1.124586   -0.297930 C.2       1 <1>        -0.048862 
      5 C           0.029110   -2.466922    0.657408 C.ar      1 <1>         0.102746 
      6 C          -2.067244   -1.140508    0.300839 C.ar      1 <1>        -0.028849 
      7 C           0.734451    2.366455   -0.629518 C.2       1 <1>         0.010298 
      8 C          -1.451874   -2.376005    0.630958 C.ar      1 <1>         0.102220 
      9 O           0.657284   -3.671187    0.979232 O.3       1 <1>        -0.357261 
     10 C           1.681895    3.460438   -0.919588 C.2       1 <1>         0.284026 
     11 O          -2.209775   -3.512694    0.932686 O.3       1 <1>        -0.357274 
     12 O           1.211856    4.668059   -1.242171 O.3       1 <1>        -0.327929 
     13 O           2.885570    3.259360   -0.864108 O.2       1 <1>        -0.260082 
     14 H           1.889762   -1.440447    0.386695 H         1 <1>         0.064993 
     15 H          -1.748910    0.968924   -0.260733 H         1 <1>         0.062425 
     16 H           2.187526    0.923978   -0.242776 H         1 <1>         0.062526 
     17 H          -3.148286   -1.053601    0.276061 H         1 <1>         0.064421 
     18 H          -0.308959    2.657099   -0.708632 H         1 <1>         0.067729 
     19 H           0.019635   -4.354600    1.160376 H         1 <1>         0.217422 
     20 H          -3.149969   -3.377287    0.895123 H         1 <1>         0.217422 
     21 H           1.907615    5.295233   -1.408227 H         1 <1>         0.220537 
@<TRIPOS>BOND
     1    1    2 1    
     2    1    3 2    
     3    1    4 1    
     4    2    5 2    
     5    2   14 1    
     6    3    6 1    
     7    3   15 1    
     8    4    7 2    
     9    4   16 1    
    10    5    8 1    
    11    5    9 1    
    12    6    8 2    
    13    6   17 1    
    14    7   10 1    
    15    7   18 1    
    16    8   11 1    
    17    9   19 1    
    18   10   12 1    
    19   10   13 2    
    20   11   20 1    
    21   12   21 1    
@<TRIPOS>SUBSTRUCTURE
     1 ****        1 TEMP              0 ****  ****    0 ROOT 
@<TRIPOS>NORMAL
@<TRIPOS>FF_PBC
FORCE_FIELD_SETUP_FEATURE Force Field Setup information
v1.0  0 0.000000 0.000000 0.000000 0.000000 0.000000 0.000000 NONE 0 0 0 0 1 0 0 0 0 0 0 0 0
