@<TRIPOS>MOLECULE
MOL013383
   77    81     1     1     0
SMALL
GASTEIGER


@<TRIPOS>ATOM
      1 O           4.495469    0.582995    0.260892 O.3       1 <1>        -0.337748 
      2 O           2.423163   -2.512515    0.388121 O.3       1 <1>        -0.340157 
      3 O           3.089609    2.276688    1.048850 O.3       1 <1>        -0.343067 
      4 O           1.658333   -0.411667   -0.044864 O.3       1 <1>        -0.312375 
      5 O           5.868651   -1.014134    2.288624 O.3       1 <1>        -0.386391 
      6 O           5.481313   -3.883108    1.963674 O.3       1 <1>        -0.386488 
      7 O           5.420014    4.076558    1.198658 O.3       1 <1>        -0.384104 
      8 O           5.732986    4.236188   -1.623603 O.3       1 <1>        -0.386402 
      9 O           2.925669    3.996482   -2.267772 O.3       1 <1>        -0.386579 
     10 O           2.138236   -5.324776   -0.225163 O.3       1 <1>        -0.392366 
     11 O          -3.229623   -0.393569   -0.095466 O.3       1 <1>        -0.335585 
     12 O          -0.748737   -2.976193   -3.520512 O.3       1 <1>        -0.358966 
     13 O          -3.425037   -2.768967   -3.422009 O.2       1 <1>        -0.291783 
     14 O          -7.485128   -0.497335    2.902638 O.3       1 <1>        -0.357262 
     15 O          -9.024097    1.597301    1.898599 O.3       1 <1>        -0.345349 
     16 C           3.868346   -0.554220    0.908295 C.3       1 <1>         0.141013 
     17 C           5.005244   -1.548570    1.265868 C.3       1 <1>         0.114441 
     18 C           4.436395   -2.938118    1.664054 C.3       1 <1>         0.111906 
     19 C           4.446825    1.800925    1.030042 C.3       1 <1>         0.188431 
     20 C           2.849716   -1.212355   -0.058512 C.3       1 <1>         0.194011 
     21 C           5.396447    2.864244    0.413510 C.3       1 <1>         0.134123 
     22 C           3.500999   -3.453880    0.540073 C.3       1 <1>         0.113017 
     23 C           4.924211    3.201546   -1.025878 C.3       1 <1>         0.113972 
     24 C           3.447365    3.671575   -0.962594 C.3       1 <1>         0.109478 
     25 C           2.585639    2.581047   -0.270054 C.3       1 <1>         0.087307 
     26 C           2.896900   -4.836143    0.898648 C.3       1 <1>         0.073015 
     27 C           1.116793    3.047216   -0.123794 C.3       1 <1>        -0.036060 
     28 C           0.478850   -0.865971   -0.640622 C.ar      1 <1>         0.084385 
     29 C          -0.816185   -0.436260   -0.063683 C.ar      1 <1>        -0.000657 
     30 C           0.486224   -1.712697   -1.777112 C.ar      1 <1>        -0.000944 
     31 C          -2.021626   -0.828941   -0.644362 C.ar      1 <1>         0.092370 
     32 C          -2.016903   -1.705386   -1.837818 C.ar      1 <1>         0.077223 
     33 C          -4.315140   -0.262454   -1.029950 C.3       1 <1>         0.097240 
     34 C          -0.788541   -2.146288   -2.396208 C.ar      1 <1>         0.087976 
     35 C          -4.605630   -1.623402   -1.708898 C.3       1 <1>         0.041565 
     36 C          -3.360320   -2.089446   -2.409814 C.2       1 <1>         0.170906 
     37 C          -5.556694    0.229637   -0.273574 C.ar      1 <1>        -0.015387 
     38 C          -5.919418   -0.364890    0.949944 C.ar      1 <1>        -0.023737 
     39 C          -6.384186    1.334437   -0.814382 C.ar      1 <1>        -0.053492 
     40 C          -7.119550    0.102234    1.692468 C.ar      1 <1>         0.102776 
     41 C          -7.513267    1.788685   -0.115304 C.ar      1 <1>        -0.028818 
     42 C          -7.901521    1.163375    1.176616 C.ar      1 <1>         0.105421 
     43 C          -9.766556    2.763143    1.508975 C.3       1 <1>         0.043135 
     44 H           3.304071   -0.309527    1.824674 H         1 <1>         0.067490 
     45 H           5.629480   -1.676843    0.367220 H         1 <1>         0.064768 
     46 H           3.836428   -2.822075    2.581127 H         1 <1>         0.064673 
     47 H           4.783503    1.622834    2.064839 H         1 <1>         0.093753 
     48 H           3.295019   -1.249321   -1.065538 H         1 <1>         0.094170 
     49 H           6.415119    2.442965    0.357237 H         1 <1>         0.067095 
     50 H           4.058233   -3.575524   -0.404371 H         1 <1>         0.064668 
     51 H           4.976353    2.295970   -1.655096 H         1 <1>         0.064757 
     52 H           3.406844    4.592775   -0.359656 H         1 <1>         0.064584 
     53 H           2.590749    1.682329   -0.907473 H         1 <1>         0.062075 
     54 H           2.248207   -4.723600    1.783556 H         1 <1>         0.058370 
     55 H           3.703744   -5.550225    1.135797 H         1 <1>         0.058370 
     56 H           0.666791    3.245114   -1.108984 H         1 <1>         0.025536 
     57 H           1.068263    3.963822    0.482824 H         1 <1>         0.025536 
     58 H           0.531766    2.264421    0.379905 H         1 <1>         0.025536 
     59 H           5.434648   -0.903112    3.128205 H         1 <1>         0.210005 
     60 H           6.077118   -4.033335    1.236807 H         1 <1>         0.210004 
     61 H           5.726134    3.951567    2.091275 H         1 <1>         0.210110 
     62 H           6.654218    4.006010   -1.689291 H         1 <1>         0.210005 
     63 H           2.946906    3.264555   -2.875023 H         1 <1>         0.210002 
     64 H           1.723470   -6.167078   -0.062381 H         1 <1>         0.209508 
     65 H          -0.829022    0.191391    0.819310 H         1 <1>         0.066941 
     66 H           1.412140   -2.053773   -2.220063 H         1 <1>         0.066933 
     67 H          -4.031785    0.485255   -1.790105 H         1 <1>         0.065572 
     68 H          -5.433432   -1.515885   -2.427506 H         1 <1>         0.037400 
     69 H          -4.882620   -2.372902   -0.952533 H         1 <1>         0.037400 
     70 H          -5.314744   -1.169675    1.352564 H         1 <1>         0.064759 
     71 H          -6.119114    1.800210   -1.758504 H         1 <1>         0.062192 
     72 H          -1.606800   -3.209390   -3.863175 H         1 <1>         0.217342 
     73 H          -8.090614    2.600176   -0.539634 H         1 <1>         0.064420 
     74 H          -6.935234   -1.229969    3.151835 H         1 <1>         0.217422 
     75 H          -9.118468    3.652862    1.487936 H         1 <1>         0.052871 
     76 H         -10.249176    2.620107    0.530226 H         1 <1>         0.052871 
     77 H         -10.552938    2.923476    2.260594 H         1 <1>         0.052871 
@<TRIPOS>BOND
     1   16    1 1    
     2    1   19 1    
     3   20    2 1    
     4    2   22 1    
     5   19    3 1    
     6    3   25 1    
     7    4   20 1    
     8   28    4 1    
     9   17    5 1    
    10    5   59 1    
    11   18    6 1    
    12    6   60 1    
    13   21    7 1    
    14    7   61 1    
    15   23    8 1    
    16    8   62 1    
    17   24    9 1    
    18    9   63 1    
    19   26   10 1    
    20   10   64 1    
    21   11   31 1    
    22   33   11 1    
    23   34   12 1    
    24   12   72 1    
    25   36   13 2    
    26   40   14 1    
    27   14   74 1    
    28   42   15 1    
    29   15   43 1    
    30   16   17 1    
    31   20   16 1    
    32   16   44 1    
    33   17   18 1    
    34   17   45 1    
    35   22   18 1    
    36   18   46 1    
    37   19   21 1    
    38   19   47 1    
    39   20   48 1    
    40   21   23 1    
    41   21   49 1    
    42   22   26 1    
    43   22   50 1    
    44   23   24 1    
    45   23   51 1    
    46   25   24 1    
    47   24   52 1    
    48   25   27 1    
    49   25   53 1    
    50   26   54 1    
    51   26   55 1    
    52   27   56 1    
    53   27   57 1    
    54   27   58 1    
    55   29   28 1    
    56   28   30 2    
    57   31   29 2    
    58   29   65 1    
    59   34   30 1    
    60   30   66 1    
    61   31   32 1    
    62   32   34 2    
    63   36   32 1    
    64   33   35 1    
    65   37   33 1    
    66   33   67 1    
    67   35   36 1    
    68   35   68 1    
    69   35   69 1    
    70   38   37 2    
    71   37   39 1    
    72   40   38 1    
    73   38   70 1    
    74   39   41 2    
    75   39   71 1    
    76   40   42 2    
    77   41   42 1    
    78   41   73 1    
    79   43   75 1    
    80   43   76 1    
    81   43   77 1    
@<TRIPOS>SUBSTRUCTURE
     1 ****        1 TEMP              0 ****  ****    0 ROOT 
@<TRIPOS>NORMAL
@<TRIPOS>FF_PBC
FORCE_FIELD_SETUP_FEATURE Force Field Setup information
v1.0  0 0.000000 0.000000 0.000000 0.000000 0.000000 0.000000 NONE 0 0 0 0 1 0 0 0 0 0 0 0 0
