@<TRIPOS>MOLECULE
MOL002208
   30    31     1     1     0
SMALL
GASTEIGER


@<TRIPOS>ATOM
      1 C          -0.887592    2.958791   -0.689874 C.2       1 <1>         0.294394 
      2 O           0.389744    2.580969   -0.732130 O.3       1 <1>        -0.303681 
      3 C           0.395283    1.130832   -0.760255 C.3       1 <1>         0.090426 
      4 C          -1.080663    0.801236   -0.696502 C.2       1 <1>        -0.027479 
      5 C          -1.619318   -0.602907   -0.705492 C.3       1 <1>        -0.024826 
      6 C          -3.060419   -0.621911   -0.111015 C.3       1 <1>        -0.030650 
      7 C          -3.888142    0.618190   -0.381845 C.2       1 <1>        -0.082971 
      8 C          -3.322219    1.807226   -0.623409 C.2       1 <1>        -0.052751 
      9 C          -1.857953    1.873911   -0.661729 C.2       1 <1>         0.047896 
     10 O          -1.215726    4.133312   -0.674301 O.2       1 <1>        -0.259206 
     11 C           1.237764    0.598729    0.432341 C.3       1 <1>        -0.022103 
     12 C           2.031446   -0.693025    0.084968 C.3       1 <1>        -0.050640 
     13 C           2.807644   -1.226611    1.320068 C.3       1 <1>        -0.055821 
     14 C           3.623921   -2.497991    0.969138 C.3       1 <1>        -0.065275 
     15 H           0.813148    0.817172   -1.730412 H         1 <1>         0.064947 
     16 H          -0.987484   -1.293827   -0.129284 H         1 <1>         0.031405 
     17 H          -1.634183   -0.932358   -1.756463 H         1 <1>         0.031405 
     18 H          -3.589736   -1.516437   -0.478478 H         1 <1>         0.031047 
     19 H          -2.995105   -0.696561    0.986837 H         1 <1>         0.031047 
     20 H          -4.976640    0.542780   -0.355783 H         1 <1>         0.057233 
     21 H          -3.911388    2.709630   -0.788628 H         1 <1>         0.062216 
     22 H           0.580892    0.437462    1.301972 H         1 <1>         0.029352 
     23 H           1.974374    1.371065    0.708564 H         1 <1>         0.029352 
     24 H           2.749326   -0.469173   -0.721729 H         1 <1>         0.026610 
     25 H           1.352715   -1.478720   -0.277821 H         1 <1>         0.026610 
     26 H           2.095159   -1.468112    2.126591 H         1 <1>         0.026266 
     27 H           3.496304   -0.448613    1.689946 H         1 <1>         0.026266 
     28 H           4.161884   -2.860708    1.859393 H         1 <1>         0.022978 
     29 H           4.360994   -2.276223    0.181569 H         1 <1>         0.022978 
     30 H           2.956269   -3.298329    0.613660 H         1 <1>         0.022978 
@<TRIPOS>BOND
     1    1    2 1    
     2    1    9 1    
     3    1   10 2    
     4    2    3 1    
     5    3    4 1    
     6    3   11 1    
     7    3   15 1    
     8    4    5 1    
     9    4    9 2    
    10    5    6 1    
    11    5   16 1    
    12    5   17 1    
    13    6    7 1    
    14    6   18 1    
    15    6   19 1    
    16    7    8 2    
    17    7   20 1    
    18    8    9 1    
    19    8   21 1    
    20   11   12 1    
    21   11   22 1    
    22   11   23 1    
    23   12   13 1    
    24   12   24 1    
    25   12   25 1    
    26   13   14 1    
    27   13   26 1    
    28   13   27 1    
    29   14   28 1    
    30   14   29 1    
    31   14   30 1    
@<TRIPOS>SUBSTRUCTURE
     1 ****        1 TEMP              0 ****  ****    0 ROOT 
@<TRIPOS>NORMAL
@<TRIPOS>FF_PBC
FORCE_FIELD_SETUP_FEATURE Force Field Setup information
v1.0  0 0.000000 0.000000 0.000000 0.000000 0.000000 0.000000 NONE 0 0 0 0 1 0 0 0 0 0 0 0 0
