@<TRIPOS>MOLECULE
MOL001392
   47    46     1     1     0
SMALL
GASTEIGER


@<TRIPOS>ATOM
      1 C           7.683201    0.247305   -0.000168 C.2       1 <1>         0.261905 
      2 C           6.425973   -0.585275    0.000354 C.3       1 <1>         0.033189 
      3 C           5.123093    0.260469   -0.000134 C.3       1 <1>        -0.044055 
      4 C           3.857525   -0.640474    0.000128 C.3       1 <1>        -0.052596 
      5 C           2.560516    0.214230   -0.000150 C.3       1 <1>        -0.053045 
      6 C           1.288674   -0.677767    0.000075 C.3       1 <1>        -0.053057 
      7 C          -0.002326    0.186126   -0.000134 C.3       1 <1>        -0.053057 
      8 C          -1.280851   -0.696210    0.000082 C.3       1 <1>        -0.053057 
      9 C          -2.565246    0.177628   -0.000118 C.3       1 <1>        -0.053057 
     10 C          -3.850203   -0.695207    0.000101 C.3       1 <1>        -0.053057 
     11 C          -5.128898    0.187046   -0.000108 C.3       1 <1>        -0.053065 
     12 C          -6.418255   -0.679139    0.000110 C.3       1 <1>        -0.053306 
     13 C          -7.693621    0.207393   -0.000113 C.3       1 <1>        -0.055911 
     14 C          -8.981715   -0.656421    0.000109 C.3       1 <1>        -0.065276 
     15 O           8.781534   -0.286881   -0.001145 O.2       1 <1>        -0.264985 
     16 O           7.513882    1.578664    0.000525 O.3       1 <1>        -0.318522 
     17 C           8.746904    2.324390    0.000010 C.3       1 <1>         0.045865 
     18 H           6.448150   -1.228535    0.893797 H         1 <1>         0.036606 
     19 H           6.448099   -1.229543   -0.892368 H         1 <1>         0.036606 
     20 H           5.112233    0.905433   -0.894479 H         1 <1>         0.027004 
     21 H           5.112057    0.906177    0.893672 H         1 <1>         0.027004 
     22 H           3.868584   -1.285992    0.893772 H         1 <1>         0.026540 
     23 H           3.868614   -1.286578   -0.893102 H         1 <1>         0.026540 
     24 H           2.551269    0.860179   -0.893525 H         1 <1>         0.026529 
     25 H           2.551226    0.860712    0.892846 H         1 <1>         0.026529 
     26 H           1.295598   -1.323419    0.893632 H         1 <1>         0.026528 
     27 H           1.295600   -1.323904   -0.893140 H         1 <1>         0.026528 
     28 H          -0.006984    0.832083   -0.893525 H         1 <1>         0.026528 
     29 H          -0.006984    0.832557    0.892910 H         1 <1>         0.026528 
     30 H          -1.278664   -1.341923    0.893618 H         1 <1>         0.026528 
     31 H          -1.278673   -1.342391   -0.893126 H         1 <1>         0.026528 
     32 H          -2.565226    0.823547   -0.893543 H         1 <1>         0.026528 
     33 H          -2.565214    0.824016    0.892967 H         1 <1>         0.026528 
     34 H          -3.852416   -1.340977    0.893620 H         1 <1>         0.026528 
     35 H          -3.852427   -1.341451   -0.893081 H         1 <1>         0.026528 
     36 H          -5.125328    0.832972   -0.893527 H         1 <1>         0.026528 
     37 H          -5.125321    0.833444    0.892978 H         1 <1>         0.026528 
     38 H          -6.424046   -1.324845    0.893670 H         1 <1>         0.026520 
     39 H          -6.424051   -1.325317   -0.893109 H         1 <1>         0.026520 
     40 H          -7.694004    0.853758   -0.893731 H         1 <1>         0.026265 
     41 H          -7.694005    0.854226    0.893179 H         1 <1>         0.026265 
     42 H          -9.872597   -0.008483   -0.000058 H         1 <1>         0.022978 
     43 H          -9.014806   -1.296805    0.895334 H         1 <1>         0.022978 
     44 H          -9.014808   -1.297266   -0.894781 H         1 <1>         0.022978 
     45 H           8.493353    3.394763    0.000540 H         1 <1>         0.052962 
     46 H           9.344643    2.109363   -0.900369 H         1 <1>         0.052962 
     47 H           9.345742    2.108725    0.899506 H         1 <1>         0.052962 
@<TRIPOS>BOND
     1    1    2 1    
     2    1   15 2    
     3    1   16 1    
     4    2    3 1    
     5    2   18 1    
     6    2   19 1    
     7    3    4 1    
     8    3   20 1    
     9    3   21 1    
    10    4    5 1    
    11    4   22 1    
    12    4   23 1    
    13    5    6 1    
    14    5   24 1    
    15    5   25 1    
    16    6    7 1    
    17    6   26 1    
    18    6   27 1    
    19    7    8 1    
    20    7   28 1    
    21    7   29 1    
    22    8    9 1    
    23    8   30 1    
    24    8   31 1    
    25    9   10 1    
    26    9   32 1    
    27    9   33 1    
    28   10   11 1    
    29   10   34 1    
    30   10   35 1    
    31   11   12 1    
    32   11   36 1    
    33   11   37 1    
    34   12   13 1    
    35   12   38 1    
    36   12   39 1    
    37   13   14 1    
    38   13   40 1    
    39   13   41 1    
    40   14   42 1    
    41   14   43 1    
    42   14   44 1    
    43   16   17 1    
    44   17   45 1    
    45   17   46 1    
    46   17   47 1    
@<TRIPOS>SUBSTRUCTURE
     1 ****        1 TEMP              0 ****  ****    0 ROOT 
@<TRIPOS>NORMAL
@<TRIPOS>FF_PBC
FORCE_FIELD_SETUP_FEATURE Force Field Setup information
v1.0  0 0.000000 0.000000 0.000000 0.000000 0.000000 0.000000 NONE 0 0 0 0 1 0 0 0 0 0 0 0 0
