@<TRIPOS>MOLECULE
MOL004725
   30    30     1     1     0
SMALL
GASTEIGER


@<TRIPOS>ATOM
      1 O           2.783621   -0.947489    0.025879 O.3       1 <1>        -0.311865 
      2 O           4.719694   -2.075489    0.206970 O.2       1 <1>        -0.264965 
      3 C           2.422035    0.397700   -0.322888 C.3       1 <1>         0.068538 
      4 C           1.057137    0.805306    0.287548 C.3       1 <1>        -0.025996 
      5 C           3.613904    1.226115    0.205291 C.3       1 <1>        -0.017021 
      6 C          -0.093848   -0.066271   -0.283655 C.3       1 <1>        -0.050699 
      7 C          -1.463652    0.328055    0.333390 C.3       1 <1>        -0.052985 
      8 C           4.790055    0.299002   -0.166436 C.3       1 <1>         0.035560 
      9 C          -2.613571   -0.544380   -0.240609 C.3       1 <1>        -0.053305 
     10 C           4.117358   -1.029359    0.034814 C.2       1 <1>         0.262499 
     11 C          -3.983045   -0.157458    0.381370 C.3       1 <1>        -0.055911 
     12 C          -5.129160   -1.031709   -0.191126 C.3       1 <1>        -0.065276 
     13 H           2.386720    0.479218   -1.424086 H         1 <1>         0.060203 
     14 H           0.867571    1.868027    0.065602 H         1 <1>         0.029027 
     15 H           1.103019    0.679084    1.381199 H         1 <1>         0.029027 
     16 H           3.547175    1.322143    1.301988 H         1 <1>         0.029507 
     17 H           3.687306    2.229247   -0.244811 H         1 <1>         0.029507 
     18 H          -0.137654    0.058672   -1.378080 H         1 <1>         0.026608 
     19 H           0.113850   -1.126924   -0.065616 H         1 <1>         0.026608 
     20 H          -1.668949    1.389623    0.117953 H         1 <1>         0.026529 
     21 H          -1.420468    0.199718    1.427525 H         1 <1>         0.026529 
     22 H           5.668930    0.439638    0.481984 H         1 <1>         0.036689 
     23 H           5.080062    0.403129   -1.223721 H         1 <1>         0.036689 
     24 H          -2.405910   -1.606297   -0.029325 H         1 <1>         0.026520 
     25 H          -2.660803   -0.412824   -1.334228 H         1 <1>         0.026520 
     26 H          -3.942049   -0.289368    1.475512 H         1 <1>         0.026265 
     27 H          -4.198458    0.903223    0.169618 H         1 <1>         0.026265 
     28 H          -6.089984   -0.742681    0.263500 H         1 <1>         0.022978 
     29 H          -4.945728   -2.095754    0.025214 H         1 <1>         0.022978 
     30 H          -5.204459   -0.900494   -1.281876 H         1 <1>         0.022978 
@<TRIPOS>BOND
     1    1    3 1    
     2    1   10 1    
     3   10    2 2    
     4    3    4 1    
     5    3    5 1    
     6    3   13 1    
     7    4    6 1    
     8    4   14 1    
     9    4   15 1    
    10    5    8 1    
    11    5   16 1    
    12    5   17 1    
    13    6    7 1    
    14    6   18 1    
    15    6   19 1    
    16    7    9 1    
    17    7   20 1    
    18    7   21 1    
    19    8   10 1    
    20    8   22 1    
    21    8   23 1    
    22    9   11 1    
    23    9   24 1    
    24    9   25 1    
    25   11   12 1    
    26   11   26 1    
    27   11   27 1    
    28   12   28 1    
    29   12   29 1    
    30   12   30 1    
@<TRIPOS>SUBSTRUCTURE
     1 ****        1 TEMP              0 ****  ****    0 ROOT 
@<TRIPOS>NORMAL
@<TRIPOS>FF_PBC
FORCE_FIELD_SETUP_FEATURE Force Field Setup information
v1.0  0 0.000000 0.000000 0.000000 0.000000 0.000000 0.000000 NONE 0 0 0 0 1 0 0 0 0 0 0 0 0
