@<TRIPOS>MOLECULE
MOL004924
   55    59     1     1     0
SMALL
GASTEIGER


@<TRIPOS>ATOM
      1 C          -2.705530    0.377812   -0.958873 C.3       1 <1>         0.101492 
      2 C          -3.377159   -1.025947   -0.883873 C.3       1 <1>         0.041402 
      3 C          -1.215466    0.358745   -0.614170 C.ar      1 <1>         0.012402 
      4 O          -3.386458    1.229392   -0.007339 O.3       1 <1>        -0.335751 
      5 C          -4.694910   -0.644070   -0.239910 C.ar      1 <1>        -0.009134 
      6 C          -2.597102   -1.949397    0.078563 C.3       1 <1>         0.063812 
      7 C          -0.569998   -0.785299   -0.309994 C.ar      1 <1>         0.084303 
      8 C          -0.469424    1.640664   -0.603238 C.ar      1 <1>        -0.051177 
      9 C          -4.593015    0.584429    0.217805 C.ar      1 <1>         0.083036 
     10 C          -5.931875   -1.443593   -0.078111 C.ar      1 <1>        -0.053252 
     11 O          -1.231695   -2.014604   -0.348940 O.3       1 <1>        -0.343558 
     12 C           0.853646   -0.743110    0.093146 C.ar      1 <1>        -0.001187 
     13 C           0.828837    1.669115   -0.259082 C.ar      1 <1>        -0.031070 
     14 C          -5.709811    1.211365    0.957515 C.ar      1 <1>        -0.001356 
     15 C          -6.954826   -0.885070    0.597770 C.ar      1 <1>        -0.031262 
     16 C           1.528380    0.416940    0.134663 C.ar      1 <1>         0.081927 
     17 C          -6.826255    0.487109    1.159992 C.ar      1 <1>         0.078275 
     18 O           2.858826    0.410968    0.570174 O.3       1 <1>        -0.312468 
     19 O          -7.868641    1.018553    1.915354 O.3       1 <1>        -0.347829 
     20 C           3.816777    1.365619    0.088062 C.3       1 <1>         0.193644 
     21 C          -7.701164    0.757861    3.320183 C.3       1 <1>         0.043027 
     22 O           3.958241    1.289517   -1.345731 O.3       1 <1>        -0.340168 
     23 C           5.150230    1.191804    0.864852 C.3       1 <1>         0.134509 
     24 C           4.635372    0.102226   -1.819365 C.3       1 <1>         0.113017 
     25 C           5.911536   -0.074906    0.393010 C.3       1 <1>         0.114074 
     26 O           5.955878    2.381959    0.717228 O.3       1 <1>        -0.384091 
     27 C           6.030876   -0.054873   -1.156289 C.3       1 <1>         0.111896 
     28 C           3.768097   -1.186160   -1.777986 C.3       1 <1>         0.073015 
     29 O           5.261184   -1.255688    0.906033 O.3       1 <1>        -0.386401 
     30 O           6.844098    1.051193   -1.603637 O.3       1 <1>        -0.386488 
     31 O           4.466995   -2.260281   -2.439959 O.3       1 <1>        -0.392366 
     32 H          -2.847960    0.817533   -1.961688 H         1 <1>         0.065909 
     33 H          -3.497152   -1.492105   -1.875449 H         1 <1>         0.040099 
     34 H          -3.029249   -2.961977    0.067838 H         1 <1>         0.057187 
     35 H          -2.630976   -1.566605    1.112451 H         1 <1>         0.057187 
     36 H          -0.986424    2.555867   -0.877293 H         1 <1>         0.062270 
     37 H          -6.002831   -2.444417   -0.491112 H         1 <1>         0.062198 
     38 H           1.344505   -1.668885    0.375019 H         1 <1>         0.066928 
     39 H           1.340258    2.621736   -0.271279 H         1 <1>         0.064341 
     40 H          -5.620680    2.221874    1.339189 H         1 <1>         0.066926 
     41 H          -7.882608   -1.429320    0.739563 H         1 <1>         0.064338 
     42 H           3.492795    2.388458    0.333947 H         1 <1>         0.094159 
     43 H          -8.550284    1.197171    3.862314 H         1 <1>         0.052870 
     44 H          -6.771314    1.210953    3.698195 H         1 <1>         0.052870 
     45 H          -7.678379   -0.325976    3.514499 H         1 <1>         0.052870 
     46 H           4.894756    1.078011    1.934071 H         1 <1>         0.067108 
     47 H           4.820123    0.277932   -2.892540 H         1 <1>         0.064668 
     48 H           6.927976   -0.050685    0.825558 H         1 <1>         0.064758 
     49 H           6.760174    2.359567    1.226291 H         1 <1>         0.210111 
     50 H           6.500516   -0.991410   -1.501851 H         1 <1>         0.064673 
     51 H           2.812991   -0.976709   -2.292373 H         1 <1>         0.058370 
     52 H           3.542166   -1.494364   -0.750748 H         1 <1>         0.058370 
     53 H           5.711301   -2.067027    0.685929 H         1 <1>         0.210005 
     54 H           7.732503    1.056742   -1.262825 H         1 <1>         0.210004 
     55 H           3.979615   -3.080372   -2.452662 H         1 <1>         0.209508 
@<TRIPOS>BOND
     1    1    2 1    
     2    1    3 1    
     3    1    4 1    
     4    1   32 1    
     5    2    5 1    
     6    2    6 1    
     7    2   33 1    
     8    3    7 2    
     9    3    8 1    
    10    4    9 1    
    11    5    9 2    
    12    5   10 1    
    13    6   11 1    
    14    6   34 1    
    15    6   35 1    
    16    7   11 1    
    17    7   12 1    
    18    8   13 2    
    19    8   36 1    
    20    9   14 1    
    21   10   15 2    
    22   10   37 1    
    23   12   16 2    
    24   12   38 1    
    25   13   16 1    
    26   13   39 1    
    27   14   17 2    
    28   14   40 1    
    29   15   17 1    
    30   15   41 1    
    31   16   18 1    
    32   17   19 1    
    33   18   20 1    
    34   19   21 1    
    35   20   22 1    
    36   20   23 1    
    37   20   42 1    
    38   21   43 1    
    39   21   44 1    
    40   21   45 1    
    41   22   24 1    
    42   23   25 1    
    43   23   26 1    
    44   23   46 1    
    45   24   27 1    
    46   24   28 1    
    47   24   47 1    
    48   25   27 1    
    49   25   29 1    
    50   25   48 1    
    51   26   49 1    
    52   27   30 1    
    53   27   50 1    
    54   28   31 1    
    55   28   51 1    
    56   28   52 1    
    57   29   53 1    
    58   30   54 1    
    59   31   55 1    
@<TRIPOS>SUBSTRUCTURE
     1 ****        1 TEMP              0 ****  ****    0 ROOT 
@<TRIPOS>NORMAL
@<TRIPOS>FF_PBC
FORCE_FIELD_SETUP_FEATURE Force Field Setup information
v1.0  0 0.000000 0.000000 0.000000 0.000000 0.000000 0.000000 NONE 0 0 0 0 1 0 0 0 0 0 0 0 0
