@<TRIPOS>MOLECULE
MOL003218
   45    47     1     1     0
SMALL
GASTEIGER


@<TRIPOS>ATOM
      1 C          -2.602674    4.610235   -0.110272 C.ar      1 <1>         0.103029 
      2 C          -1.355119    4.641509    0.565043 C.ar      1 <1>        -0.016005 
      3 C          -0.395075    3.528275    0.375034 C.ar      1 <1>         0.057374 
      4 C          -0.694761    2.462537   -0.467229 C.ar      1 <1>         0.096675 
      5 C          -1.994862    2.427687   -1.173710 C.ar      1 <1>         0.001837 
      6 C          -2.924906    3.464269   -0.999546 C.ar      1 <1>         0.104708 
      7 C           0.937709    3.478004    1.074956 C.2       1 <1>         0.220668 
      8 C           1.767858    2.272997    0.903012 C.2       1 <1>         0.151729 
      9 C           1.371513    1.321124    0.033518 C.2       1 <1>         0.123969 
     10 O           0.216798    1.422345   -0.648863 O.3       1 <1>        -0.305204 
     11 C           2.163392    0.063419   -0.253724 C.ar      1 <1>         0.014205 
     12 C           1.490161   -1.259541   -0.158908 C.ar      1 <1>        -0.001718 
     13 C           0.013773   -1.320299    0.270245 C.3       1 <1>        -0.006082 
     14 C          -0.367388   -2.587539    0.998483 C.2       1 <1>        -0.080878 
     15 C           3.525693    0.140576   -0.636155 C.ar      1 <1>        -0.049164 
     16 C           4.294531   -1.093151   -0.917920 C.ar      1 <1>        -0.028751 
     17 C           3.678913   -2.340527   -0.844969 C.ar      1 <1>         0.102504 
     18 C           2.242850   -2.444466   -0.480277 C.ar      1 <1>         0.106326 
     19 C          -1.457592   -3.328949    0.739436 C.2       1 <1>        -0.079306 
     20 C          -1.746388   -4.602860    1.502913 C.3       1 <1>        -0.044040 
     21 C          -2.467946   -2.954196   -0.322411 C.3       1 <1>        -0.044040 
     22 O          -4.149077    3.406887   -1.666891 O.3       1 <1>        -0.357216 
     23 O          -3.539911    5.637232    0.041584 O.3       1 <1>        -0.357259 
     24 O           1.299050    4.413232    1.771911 O.2       1 <1>        -0.284359 
     25 O           2.891522    2.155292    1.636078 O.3       1 <1>        -0.354462 
     26 O           4.424031   -3.489298   -1.116263 O.3       1 <1>        -0.357268 
     27 O           1.648888   -3.706159   -0.456631 O.3       1 <1>        -0.357024 
     28 H          -1.096059    5.467299    1.218380 H         1 <1>         0.065194 
     29 H          -2.229273    1.594264   -1.826375 H         1 <1>         0.067029 
     30 H          -0.572190   -1.141448   -0.641561 H         1 <1>         0.035660 
     31 H          -0.199853   -0.511618    0.984813 H         1 <1>         0.035660 
     32 H           0.316430   -2.896710    1.790043 H         1 <1>         0.057472 
     33 H           4.014141    1.105242   -0.732129 H         1 <1>         0.062515 
     34 H           5.344263   -1.029851   -1.183252 H         1 <1>         0.064422 
     35 H          -0.965088   -4.850360    2.237321 H         1 <1>         0.027427 
     36 H          -1.825214   -5.440222    0.793058 H         1 <1>         0.027427 
     37 H          -2.701731   -4.500510    2.039771 H         1 <1>         0.027427 
     38 H          -2.796215   -1.911943   -0.191528 H         1 <1>         0.027427 
     39 H          -3.364779   -3.590304   -0.273264 H         1 <1>         0.027427 
     40 H          -2.019106   -3.074331   -1.319904 H         1 <1>         0.027427 
     41 H          -4.693074    4.159071   -1.455058 H         1 <1>         0.217422 
     42 H          -3.267070    6.335293    0.626972 H         1 <1>         0.217422 
     43 H           3.350257    1.324485    1.625743 H         1 <1>         0.217537 
     44 H           3.900557   -4.276413   -1.003412 H         1 <1>         0.217422 
     45 H           0.878921   -3.733577   -1.014259 H         1 <1>         0.217433 
@<TRIPOS>BOND
     1    1    2 2    
     2    1    6 1    
     3    1   23 1    
     4    2    3 1    
     5    2   28 1    
     6    3    4 2    
     7    3    7 1    
     8    4    5 1    
     9    4   10 1    
    10    5    6 2    
    11    5   29 1    
    12    6   22 1    
    13    7    8 1    
    14    7   24 2    
    15    8    9 2    
    16    8   25 1    
    17    9   10 1    
    18    9   11 1    
    19   11   12 1    
    20   11   15 2    
    21   12   13 1    
    22   12   18 2    
    23   13   14 1    
    24   13   30 1    
    25   13   31 1    
    26   14   19 2    
    27   14   32 1    
    28   15   16 1    
    29   15   33 1    
    30   16   17 2    
    31   16   34 1    
    32   17   18 1    
    33   17   26 1    
    34   18   27 1    
    35   19   20 1    
    36   19   21 1    
    37   20   35 1    
    38   20   36 1    
    39   20   37 1    
    40   21   38 1    
    41   21   39 1    
    42   21   40 1    
    43   22   41 1    
    44   23   42 1    
    45   25   43 1    
    46   26   44 1    
    47   27   45 1    
@<TRIPOS>SUBSTRUCTURE
     1 ****        1 TEMP              0 ****  ****    0 ROOT 
@<TRIPOS>NORMAL
@<TRIPOS>FF_PBC
FORCE_FIELD_SETUP_FEATURE Force Field Setup information
v1.0  0 0.000000 0.000000 0.000000 0.000000 0.000000 0.000000 NONE 0 0 0 0 1 0 0 0 0 0 0 0 0
