@<TRIPOS>MOLECULE
MOL004066
   37    38     1     1     0
SMALL
GASTEIGER


@<TRIPOS>ATOM
      1 C          -0.823217   -0.133821   -0.216776 C.3       1 <1>        -0.003949 
      2 C          -1.910607   -0.877626    0.634286 C.3       1 <1>        -0.031035 
      3 C           0.608154   -0.559977    0.244927 C.3       1 <1>        -0.036567 
      4 C           1.705714    0.439971   -0.200423 C.3       1 <1>        -0.016173 
      5 C          -1.044046    1.348564    0.017427 C.2       1 <1>        -0.045364 
      6 C          -3.358887   -0.447408    0.258221 C.3       1 <1>        -0.031074 
      7 C           1.406253    1.832987    0.403833 C.3       1 <1>        -0.027654 
      8 C          -1.005664   -0.383330   -1.747074 C.3       1 <1>        -0.055274 
      9 C          -0.048507    2.208978    0.281522 C.2       1 <1>        -0.079742 
     10 C          -1.808061   -2.430368    0.607324 C.3       1 <1>        -0.061339 
     11 C          -2.431775    1.852484   -0.044848 C.2       1 <1>        -0.062255 
     12 C          -3.490492    1.040594    0.053716 C.2       1 <1>        -0.083463 
     13 C           3.099372   -0.045628    0.163696 C.2       1 <1>        -0.076293 
     14 C           4.057372   -0.266169   -0.987329 C.3       1 <1>        -0.043768 
     15 C           3.474209   -0.273104    1.430954 C.2       1 <1>        -0.099437 
     16 H          -1.759836   -0.562023    1.682616 H         1 <1>         0.030949 
     17 H           0.862511   -1.553825   -0.155851 H         1 <1>         0.027955 
     18 H           0.631622   -0.620287    1.343377 H         1 <1>         0.027955 
     19 H           1.657514    0.545561   -1.294284 H         1 <1>         0.034865 
     20 H          -4.044329   -0.746523    1.068679 H         1 <1>         0.031027 
     21 H          -3.698146   -0.956980   -0.656343 H         1 <1>         0.031027 
     22 H           2.037292    2.586592   -0.095407 H         1 <1>         0.031323 
     23 H           1.641243    1.853613    1.478312 H         1 <1>         0.031323 
     24 H          -0.336356    0.250455   -2.343814 H         1 <1>         0.023830 
     25 H          -2.023667   -0.144551   -2.082502 H         1 <1>         0.023830 
     26 H          -0.796456   -1.430860   -2.005907 H         1 <1>         0.023830 
     27 H          -0.281344    3.263048    0.442365 H         1 <1>         0.057508 
     28 H          -1.935349   -2.819622   -0.412955 H         1 <1>         0.023277 
     29 H          -2.599638   -2.866817    1.236680 H         1 <1>         0.023277 
     30 H          -0.844045   -2.782485    1.002262 H         1 <1>         0.023277 
     31 H          -2.609079    2.921358   -0.174956 H         1 <1>         0.061727 
     32 H          -4.495706    1.461658   -0.014769 H         1 <1>         0.057221 
     33 H           3.634376   -1.012305   -1.676996 H         1 <1>         0.027436 
     34 H           4.203286    0.679750   -1.530430 H         1 <1>         0.027436 
     35 H           5.043541   -0.627076   -0.658260 H         1 <1>         0.027436 
     36 H           4.477841   -0.621175    1.672625 H         1 <1>         0.053440 
     37 H           2.804309   -0.123953    2.275697 H         1 <1>         0.053440 
@<TRIPOS>BOND
     1    1    2 1    
     2    1    3 1    
     3    1    5 1    
     4    1    8 1    
     5    2    6 1    
     6    2   10 1    
     7    2   16 1    
     8    3    4 1    
     9    3   17 1    
    10    3   18 1    
    11    4    7 1    
    12    4   13 1    
    13    4   19 1    
    14    5    9 2    
    15    5   11 1    
    16    6   12 1    
    17    6   20 1    
    18    6   21 1    
    19    7    9 1    
    20    7   22 1    
    21    7   23 1    
    22    8   24 1    
    23    8   25 1    
    24    8   26 1    
    25    9   27 1    
    26   10   28 1    
    27   10   29 1    
    28   10   30 1    
    29   11   12 2    
    30   11   31 1    
    31   12   32 1    
    32   13   14 1    
    33   13   15 2    
    34   14   33 1    
    35   14   34 1    
    36   14   35 1    
    37   15   36 1    
    38   15   37 1    
@<TRIPOS>SUBSTRUCTURE
     1 ****        1 TEMP              0 ****  ****    0 ROOT 
@<TRIPOS>NORMAL
@<TRIPOS>FF_PBC
FORCE_FIELD_SETUP_FEATURE Force Field Setup information
v1.0  0 0.000000 0.000000 0.000000 0.000000 0.000000 0.000000 NONE 0 0 0 0 1 0 0 0 0 0 0 0 0
