@<TRIPOS>MOLECULE
MOL000233
   29    29     1     1     0
SMALL
GASTEIGER


@<TRIPOS>ATOM
      1 C           0.745298    3.511803    1.279273 C.2       1 <1>        -0.099447 
      2 C           0.566345    2.220717    0.969707 C.2       1 <1>        -0.076585 
      3 C           1.660188    1.195748    1.170648 C.3       1 <1>        -0.031655 
      4 C           1.486492    0.045246    0.147880 C.3       1 <1>        -0.043930 
      5 C           0.146716   -0.720186    0.386763 C.3       1 <1>        -0.012073 
      6 C          -0.975824    0.252179    0.879034 C.3       1 <1>        -0.043930 
      7 C          -0.738388    1.707931    0.401119 C.3       1 <1>        -0.031655 
      8 C          -0.235606   -1.639390   -0.826465 C.3       1 <1>         0.063348 
      9 C          -1.256412   -2.740622   -0.406066 C.3       1 <1>        -0.036079 
     10 C          -0.796382   -0.853184   -2.049295 C.3       1 <1>        -0.036079 
     11 O           0.981488   -2.301157   -1.221877 O.3       1 <1>        -0.388845 
     12 H          -0.045695    4.245580    1.127421 H         1 <1>         0.053440 
     13 H           1.688793    3.866819    1.692766 H         1 <1>         0.053440 
     14 H           1.597847    0.793625    2.194139 H         1 <1>         0.031000 
     15 H           2.652509    1.658677    1.041673 H         1 <1>         0.031000 
     16 H           2.339320   -0.650737    0.226754 H         1 <1>         0.027184 
     17 H           1.524297    0.492130   -0.855960 H         1 <1>         0.027184 
     18 H           0.352639   -1.410047    1.224564 H         1 <1>         0.032842 
     19 H          -0.981413    0.288089    1.982622 H         1 <1>         0.027184 
     20 H          -1.977804   -0.080044    0.573595 H         1 <1>         0.027184 
     21 H          -1.579174    2.342733    0.726544 H         1 <1>         0.031000 
     22 H          -0.690249    1.747254   -0.697155 H         1 <1>         0.031000 
     23 H          -1.463767   -3.414689   -1.251122 H         1 <1>         0.025721 
     24 H          -2.213529   -2.313090   -0.077394 H         1 <1>         0.025721 
     25 H          -0.845958   -3.349444    0.413731 H         1 <1>         0.025721 
     26 H          -1.015914   -1.547735   -2.874298 H         1 <1>         0.025721 
     27 H          -1.730540   -0.331316   -1.799304 H         1 <1>         0.025721 
     28 H          -0.072753   -0.118104   -2.425503 H         1 <1>         0.025721 
     29 H           0.876477   -2.899787   -1.953794 H         1 <1>         0.210147 
@<TRIPOS>BOND
     1    1    2 2    
     2    1   12 1    
     3    1   13 1    
     4    2    3 1    
     5    2    7 1    
     6    3    4 1    
     7    3   14 1    
     8    3   15 1    
     9    4    5 1    
    10    4   16 1    
    11    4   17 1    
    12    5    6 1    
    13    5    8 1    
    14    5   18 1    
    15    6    7 1    
    16    6   19 1    
    17    6   20 1    
    18    7   21 1    
    19    7   22 1    
    20    8    9 1    
    21    8   10 1    
    22    8   11 1    
    23    9   23 1    
    24    9   24 1    
    25    9   25 1    
    26   10   26 1    
    27   10   27 1    
    28   10   28 1    
    29   11   29 1    
@<TRIPOS>SUBSTRUCTURE
     1 ****        1 TEMP              0 ****  ****    0 ROOT 
@<TRIPOS>NORMAL
@<TRIPOS>FF_PBC
FORCE_FIELD_SETUP_FEATURE Force Field Setup information
v1.0  0 0.000000 0.000000 0.000000 0.000000 0.000000 0.000000 NONE 0 0 0 0 1 0 0 0 0 0 0 0 0
