@<TRIPOS>MOLECULE
MOL004070
   40    42     1     1     0
SMALL
GASTEIGER


@<TRIPOS>ATOM
      1 C          -1.152710    1.403552   -1.349907 C.3       1 <1>        -0.040749 
      2 C           0.154856    1.882432   -2.045427 C.3       1 <1>        -0.049922 
      3 C           1.160755    2.045376   -0.879882 C.3       1 <1>        -0.049113 
      4 C           0.756792    1.021628    0.229768 C.3       1 <1>        -0.029877 
      5 C           1.312131   -0.460218    0.213190 C.3       1 <1>         0.000837 
      6 C           1.046372   -1.155515    1.613457 C.3       1 <1>         0.081872 
      7 C          -0.289164   -1.875601    1.680314 C.2       1 <1>        -0.044919 
      8 C          -1.318082   -1.403380    0.683838 C.3       1 <1>        -0.017441 
      9 C          -1.642818    0.105173    0.891628 C.3       1 <1>        -0.043080 
     10 C          -0.781699    1.167386    0.147499 C.3       1 <1>        -0.034498 
     11 C           0.717871   -1.371555   -0.909465 C.3       1 <1>        -0.044163 
     12 C          -0.739697   -1.877904   -0.675838 C.3       1 <1>        -0.045836 
     13 O           2.125133   -2.065352    1.928703 O.3       1 <1>        -0.386950 
     14 C          -0.580427   -2.872923    2.531253 C.2       1 <1>        -0.096744 
     15 C           2.859508   -0.398784   -0.006376 C.3       1 <1>        -0.056636 
     16 C          -2.332182    2.401439   -1.527077 C.3       1 <1>        -0.062154 
     17 H          -1.483917    0.485761   -1.843623 H         1 <1>         0.030088 
     18 H           0.535055    1.148466   -2.772177 H         1 <1>         0.026803 
     19 H           0.015891    2.818625   -2.611050 H         1 <1>         0.026803 
     20 H           0.977894    3.062002   -0.490096 H         1 <1>         0.026829 
     21 H           2.205282    2.042484   -1.209395 H         1 <1>         0.026829 
     22 H           1.139284    1.468400    1.162482 H         1 <1>         0.030969 
     23 H           1.031523   -0.394873    2.413085 H         1 <1>         0.064574 
     24 H          -2.270928   -1.941861    0.832210 H         1 <1>         0.034641 
     25 H          -2.690418    0.296243    0.603579 H         1 <1>         0.027381 
     26 H          -1.577519    0.303486    1.977417 H         1 <1>         0.027381 
     27 H          -1.011410    2.126783    0.647584 H         1 <1>         0.030638 
     28 H           0.788554   -0.878429   -1.882434 H         1 <1>         0.027168 
     29 H           1.363534   -2.263696   -0.996077 H         1 <1>         0.027168 
     30 H          -0.713796   -2.981328   -0.621491 H         1 <1>         0.027116 
     31 H          -1.425048   -1.670871   -1.508866 H         1 <1>         0.027116 
     32 H           2.157633   -2.362568    2.835293 H         1 <1>         0.210242 
     33 H          -1.553451   -3.361934    2.516836 H         1 <1>         0.053529 
     34 H           0.112123   -3.265044    3.271093 H         1 <1>         0.053529 
     35 H           3.336896    0.221935    0.767751 H         1 <1>         0.023606 
     36 H           3.112641    0.005273   -0.994000 H         1 <1>         0.023606 
     37 H           3.330802   -1.394070    0.024675 H         1 <1>         0.023606 
     38 H          -3.230117    2.035935   -1.007286 H         1 <1>         0.023250 
     39 H          -2.579112    2.514573   -2.593370 H         1 <1>         0.023250 
     40 H          -2.075211    3.392115   -1.124807 H         1 <1>         0.023250 
@<TRIPOS>BOND
     1    1    2 1    
     2    1   10 1    
     3    1   16 1    
     4    1   17 1    
     5    2    3 1    
     6    2   18 1    
     7    2   19 1    
     8    3    4 1    
     9    3   20 1    
    10    3   21 1    
    11    4    5 1    
    12    4   10 1    
    13    4   22 1    
    14    5    6 1    
    15    5   11 1    
    16    5   15 1    
    17    6    7 1    
    18    6   13 1    
    19    6   23 1    
    20    7    8 1    
    21    7   14 2    
    22    8    9 1    
    23    8   12 1    
    24    8   24 1    
    25    9   10 1    
    26    9   25 1    
    27    9   26 1    
    28   10   27 1    
    29   11   12 1    
    30   11   28 1    
    31   11   29 1    
    32   12   30 1    
    33   12   31 1    
    34   13   32 1    
    35   14   33 1    
    36   14   34 1    
    37   15   35 1    
    38   15   36 1    
    39   15   37 1    
    40   16   38 1    
    41   16   39 1    
    42   16   40 1    
@<TRIPOS>SUBSTRUCTURE
     1 ****        1 TEMP              0 ****  ****    0 ROOT 
@<TRIPOS>NORMAL
@<TRIPOS>FF_PBC
FORCE_FIELD_SETUP_FEATURE Force Field Setup information
v1.0  0 0.000000 0.000000 0.000000 0.000000 0.000000 0.000000 NONE 0 0 0 0 1 0 0 0 0 0 0 0 0
