@<TRIPOS>MOLECULE
MOL002175
   17    17     1     1     0
SMALL
GASTEIGER


@<TRIPOS>ATOM
      1 C          -0.373732   -1.073586    0.457183 C.3       1 <1>         0.058932 
      2 C          -1.317019   -0.158106   -0.357822 C.3       1 <1>        -0.023134 
      3 C           1.047048   -1.004081   -0.163801 C.3       1 <1>        -0.008606 
      4 O          -0.374965   -0.613241    1.821178 O.3       1 <1>        -0.391474 
      5 C          -0.843834    1.312521   -0.231983 C.3       1 <1>        -0.032417 
      6 C           1.487844    0.414208   -0.428264 C.2       1 <1>        -0.085504 
      7 C           0.641272    1.451811   -0.456694 C.2       1 <1>        -0.087769 
      8 H          -0.747224   -2.113630    0.420861 H         1 <1>         0.059621 
      9 H          -2.350437   -0.250771    0.015206 H         1 <1>         0.029308 
     10 H          -1.301645   -0.467367   -1.416169 H         1 <1>         0.029308 
     11 H           1.764140   -1.498293    0.510480 H         1 <1>         0.033223 
     12 H           1.060011   -1.538619   -1.127088 H         1 <1>         0.033223 
     13 H           0.180416   -1.131907    2.394168 H         1 <1>         0.209789 
     14 H          -1.391736    1.931989   -0.960738 H         1 <1>         0.030812 
     15 H          -1.065144    1.694159    0.777741 H         1 <1>         0.030812 
     16 H           2.549628    0.592466   -0.609259 H         1 <1>         0.056977 
     17 H           1.035478    2.452351   -0.644902 H         1 <1>         0.056898 
@<TRIPOS>BOND
     1    1    2 1    
     2    1    3 1    
     3    1    4 1    
     4    1    8 1    
     5    2    5 1    
     6    2    9 1    
     7    2   10 1    
     8    3    6 1    
     9    3   11 1    
    10    3   12 1    
    11    4   13 1    
    12    5    7 1    
    13    5   14 1    
    14    5   15 1    
    15    6    7 2    
    16    6   16 1    
    17    7   17 1    
@<TRIPOS>SUBSTRUCTURE
     1 ****        1 TEMP              0 ****  ****    0 ROOT 
@<TRIPOS>NORMAL
@<TRIPOS>FF_PBC
FORCE_FIELD_SETUP_FEATURE Force Field Setup information
v1.0  0 0.000000 0.000000 0.000000 0.000000 0.000000 0.000000 NONE 0 0 0 0 1 0 0 0 0 0 0 0 0
