@<TRIPOS>MOLECULE
MOL008040
   38    40     1     1     0
SMALL
GASTEIGER


@<TRIPOS>ATOM
      1 C          -0.014030    1.787194    0.163473 C.ar      1 <1>         0.087099 
      2 C           2.305165    0.708803    0.252754 C.2       1 <1>         0.151807 
      3 C           1.479487    1.931879    0.294017 C.2       1 <1>         0.223152 
      4 C           1.739108   -0.499200    0.084888 C.2       1 <1>         0.123622 
      5 O           0.406675   -0.658361   -0.024794 O.3       1 <1>        -0.305129 
      6 C          -0.497618    0.404444    0.003109 C.ar      1 <1>         0.099177 
      7 C          -0.909410    2.862430    0.188730 C.ar      1 <1>         0.118560 
      8 C          -2.368749    2.620441    0.053710 C.ar      1 <1>         0.136267 
      9 C          -1.868155    0.150784   -0.123174 C.ar      1 <1>         0.002266 
     10 C          -2.855348    1.263068   -0.101425 C.ar      1 <1>         0.110695 
     11 C           2.563741   -1.768526    0.020241 C.ar      1 <1>         0.008296 
     12 O           2.017877    3.018473    0.432725 O.2       1 <1>        -0.284269 
     13 O           3.635187    0.803606    0.398122 O.3       1 <1>        -0.354461 
     14 O          -0.428734    4.163633    0.341552 O.3       1 <1>        -0.356588 
     15 C           2.004191   -2.999509    0.630456 C.ar      1 <1>        -0.049598 
     16 C           3.839043   -1.834088   -0.608432 C.ar      1 <1>        -0.049598 
     17 O          -3.215150    3.742004    0.084199 O.3       1 <1>        -0.342940 
     18 O          -4.228785    1.010785   -0.228514 O.3       1 <1>        -0.345170 
     19 C           4.063924   -4.266370   -0.033742 C.ar      1 <1>         0.072619 
     20 C           2.728817   -4.203974    0.603796 C.ar      1 <1>        -0.031302 
     21 C           4.602375   -3.105169   -0.625005 C.ar      1 <1>        -0.031302 
     22 O           4.761378   -5.477468   -0.035089 O.3       1 <1>        -0.359832 
     23 C          -4.641919    3.652777   -0.054072 C.3       1 <1>         0.043243 
     24 C          -4.752772   -0.319169   -0.369531 C.3       1 <1>         0.043138 
     25 H          -2.179706   -0.879334   -0.237433 H         1 <1>         0.067039 
     26 H           3.934366    1.700596    0.516884 H         1 <1>         0.217537 
     27 H          -1.138310    4.799070    0.343524 H         1 <1>         0.217446 
     28 H           1.027242   -2.970464    1.102209 H         1 <1>         0.062504 
     29 H           4.268115   -0.963216   -1.090188 H         1 <1>         0.062504 
     30 H           2.314098   -5.100502    1.051961 H         1 <1>         0.064339 
     31 H           5.578486   -3.128791   -1.097416 H         1 <1>         0.064339 
     32 H           5.615310   -5.438546   -0.450684 H         1 <1>         0.217313 
     33 H          -5.044827    4.674830   -0.003288 H         1 <1>         0.052872 
     34 H          -4.920542    3.222373   -1.028108 H         1 <1>         0.052872 
     35 H          -5.085550    3.068879    0.766730 H         1 <1>         0.052872 
     36 H          -5.847263   -0.239797   -0.444426 H         1 <1>         0.052871 
     37 H          -4.377639   -0.797879   -1.287061 H         1 <1>         0.052871 
     38 H          -4.510078   -0.935705    0.509606 H         1 <1>         0.052871 
@<TRIPOS>BOND
     1    1    3 1    
     2    1    6 1    
     3    1    7 2    
     4    3    2 1    
     5    2    4 2    
     6    2   13 1    
     7    3   12 2    
     8    4    5 1    
     9    4   11 1    
    10    5    6 1    
    11    6    9 2    
    12    7    8 1    
    13    7   14 1    
    14    8   10 2    
    15    8   17 1    
    16    9   10 1    
    17    9   25 1    
    18   10   18 1    
    19   11   15 1    
    20   11   16 2    
    21   13   26 1    
    22   14   27 1    
    23   15   20 2    
    24   15   28 1    
    25   16   21 1    
    26   16   29 1    
    27   17   23 1    
    28   18   24 1    
    29   20   19 1    
    30   19   21 2    
    31   19   22 1    
    32   20   30 1    
    33   21   31 1    
    34   22   32 1    
    35   23   33 1    
    36   23   34 1    
    37   23   35 1    
    38   24   36 1    
    39   24   37 1    
    40   24   38 1    
@<TRIPOS>SUBSTRUCTURE
     1 ****        1 TEMP              0 ****  ****    0 ROOT 
@<TRIPOS>NORMAL
@<TRIPOS>FF_PBC
FORCE_FIELD_SETUP_FEATURE Force Field Setup information
v1.0  0 0.000000 0.000000 0.000000 0.000000 0.000000 0.000000 NONE 0 0 0 0 1 0 0 0 0 0 0 0 0
