@<TRIPOS>MOLECULE
MOL004894
  120   126     1     1     0
SMALL
GASTEIGER


@<TRIPOS>ATOM
      1 C          22.315090  -33.907625   -0.021914 C.3       1 <1>         0.053721 
      2 C          23.135481  -33.050830   -1.094619 C.3       1 <1>        -0.038057 
      3 C          23.679181  -31.542928   -0.834599 C.3       1 <1>        -0.046118 
      4 C          22.914124  -30.721221    0.328604 C.3       1 <1>        -0.025442 
      5 C          21.465439  -31.270892    0.338955 C.3       1 <1>        -0.012608 
      6 C          21.456842  -32.811732    0.797950 C.3       1 <1>        -0.031522 
      7 C          22.939009  -29.135416    0.182266 C.3       1 <1>        -0.046277 
      8 C          21.704021  -28.197479   -0.267006 C.3       1 <1>        -0.042869 
      9 C          20.339542  -28.963786   -0.637896 C.3       1 <1>        -0.004332 
     10 C          20.380760  -30.540632   -0.494424 C.2       1 <1>        -0.056185 
     11 C          18.933143  -28.500733    0.038713 C.3       1 <1>        -0.012656 
     12 C          17.742390  -29.302045   -0.622237 C.3       1 <1>         0.033332 
     13 C          18.097492  -30.639706   -1.280995 C.2       1 <1>         0.160199 
     14 C          19.395757  -31.270321   -1.033398 C.2       1 <1>        -0.018839 
     15 C          18.454422  -27.013608   -0.240081 C.3       1 <1>        -0.045876 
     16 C          16.914500  -26.693478   -0.023237 C.3       1 <1>        -0.048587 
     17 C          15.895361  -27.784617    0.487866 C.3       1 <1>        -0.027436 
     18 C          16.264159  -29.250493   -0.010642 C.3       1 <1>        -0.018250 
     19 C          14.325894  -27.355351    0.490440 C.3       1 <1>        -0.005219 
     20 C          13.530902  -27.845292   -0.812999 C.3       1 <1>         0.067175 
     21 C          13.768341  -29.364584   -0.949341 C.3       1 <1>        -0.025459 
     22 C          15.262418  -29.712722   -1.124630 C.3       1 <1>        -0.044320 
     23 O          23.905167  -35.770511   -0.526233 O.3       1 <1>        -0.330857 
     24 C          21.221447  -35.011943   -0.332295 C.3       1 <1>        -0.050480 
     25 C          23.353039  -35.001497    0.434690 C.2       1 <1>         0.265560 
     26 O          23.765187  -35.183775    1.568909 O.2       1 <1>        -0.264567 
     27 C          16.264411  -30.343980    1.131855 C.3       1 <1>        -0.058618 
     28 C          19.149540  -28.614138    1.602645 C.3       1 <1>        -0.058099 
     29 C          20.278347  -28.622443   -2.185645 C.3       1 <1>        -0.055302 
     30 C          23.442961  -31.097804    1.793284 C.3       1 <1>        -0.059016 
     31 C          14.188472  -25.788385    0.659334 C.3       1 <1>        -0.057181 
     32 C          13.664916  -27.870480    1.798916 C.3       1 <1>        -0.057181 
     33 O          12.085789  -27.912198   -1.107745 O.3       1 <1>        -0.344868 
     34 C           8.483019  -28.308330   -0.745736 C.3       1 <1>         0.119040 
     35 C           9.490212  -28.605956    0.405567 C.3       1 <1>         0.174377 
     36 O          10.556472  -27.632315    0.682314 O.3       1 <1>        -0.332678 
     37 C          11.178049  -27.019926   -0.469054 C.3       1 <1>         0.189107 
     38 C          10.020639  -26.322830   -1.234928 C.3       1 <1>         0.140651 
     39 C           9.048748  -27.338357   -1.827044 C.3       1 <1>         0.114864 
     40 C           9.795224  -30.097937    0.297546 C.2       1 <1>         0.291467 
     41 O           8.694929  -30.866951    0.234253 O.3       1 <1>        -0.329249 
     42 O          10.913677  -30.582190    0.257153 O.2       1 <1>        -0.262180 
     43 O           7.100563  -28.169235   -0.334382 O.3       1 <1>        -0.386033 
     44 O           9.850108  -28.002720   -2.831696 O.3       1 <1>        -0.386378 
     45 C           7.788270  -23.699150    0.893216 C.3       1 <1>         0.174377 
     46 O           9.130608  -24.010660    1.308689 O.3       1 <1>        -0.332684 
     47 C           9.982790  -24.375097    0.226735 C.3       1 <1>         0.189056 
     48 C          10.258824  -23.228930   -0.815575 C.3       1 <1>         0.134152 
     49 C           9.267545  -22.092795   -0.462481 C.3       1 <1>         0.114497 
     50 C           7.845583  -22.712759   -0.318963 C.3       1 <1>         0.119030 
     51 C           6.681375  -24.731758    1.131474 C.2       1 <1>         0.291467 
     52 O           5.840758  -25.739843    0.897930 O.3       1 <1>        -0.329249 
     53 O           6.875428  -25.037718   -0.036497 O.2       1 <1>        -0.262180 
     54 O           9.285965  -25.520486   -0.299733 O.3       1 <1>        -0.337745 
     55 O           9.707865  -21.422117    0.730567 O.3       1 <1>        -0.386388 
     56 O           6.879006  -21.668726   -0.155694 O.3       1 <1>        -0.386033 
     57 O          11.634330  -22.779272   -0.771352 O.3       1 <1>        -0.384104 
     58 O          17.313911  -31.235263   -1.992302 O.2       1 <1>        -0.292347 
     59 H          23.735232  -32.957534   -0.192121 H         1 <1>         0.027550 
     60 H          22.179572  -32.641005   -1.450614 H         1 <1>         0.027550 
     61 H          24.756777  -31.285450   -0.637278 H         1 <1>         0.027098 
     62 H          23.615692  -31.091924   -1.844529 H         1 <1>         0.027098 
     63 H          21.016309  -30.809709    1.214984 H         1 <1>         0.035146 
     64 H          21.639473  -32.999561    1.874346 H         1 <1>         0.028121 
     65 H          20.369832  -32.968856    0.765879 H         1 <1>         0.028121 
     66 H          22.440523  -29.038031    1.158920 H         1 <1>         0.027096 
     67 H          22.640966  -29.477131   -0.796918 H         1 <1>         0.027096 
     68 H          21.484934  -27.345711    0.402952 H         1 <1>         0.027392 
     69 H          22.109739  -27.529691   -1.083589 H         1 <1>         0.027392 
     70 H          17.584752  -28.782428   -1.575852 H         1 <1>         0.039170 
     71 H          19.432243  -32.335500   -1.253981 H         1 <1>         0.065218 
     72 H          19.121713  -26.324505    0.310660 H         1 <1>         0.027107 
     73 H          18.603332  -26.710326   -1.291991 H         1 <1>         0.027107 
     74 H          16.935386  -25.826482    0.668453 H         1 <1>         0.026846 
     75 H          16.467941  -26.314518   -0.960123 H         1 <1>         0.026846 
     76 H          16.158212  -27.753993    1.553628 H         1 <1>         0.031221 
     77 H          13.964740  -27.295976   -1.658793 H         1 <1>         0.060224 
     78 H          13.310606  -29.884808   -0.092869 H         1 <1>         0.029047 
     79 H          13.243464  -29.733569   -1.844472 H         1 <1>         0.029047 
     80 H          15.194153  -30.809836   -1.213700 H         1 <1>         0.027160 
     81 H          15.526522  -29.296983   -2.108264 H         1 <1>         0.027160 
     82 H          23.667198  -35.545315   -1.429058 H         1 <1>         0.220226 
     83 H          20.252559  -34.616049   -0.658705 H         1 <1>         0.023986 
     84 H          21.470339  -35.765611   -1.080439 H         1 <1>         0.023986 
     85 H          21.012948  -35.590755    0.601906 H         1 <1>         0.023986 
     86 H          15.270750  -30.785842    1.314977 H         1 <1>         0.023535 
     87 H          16.920547  -31.185446    0.868343 H         1 <1>         0.023535 
     88 H          16.631501  -29.955749    2.087707 H         1 <1>         0.023535 
     89 H          20.035051  -28.041132    1.907242 H         1 <1>         0.023553 
     90 H          19.328780  -29.636466    1.952674 H         1 <1>         0.023553 
     91 H          18.352330  -28.230127    2.258174 H         1 <1>         0.023553 
     92 H          21.142666  -29.027796   -2.729568 H         1 <1>         0.023829 
     93 H          20.300555  -27.533485   -2.352218 H         1 <1>         0.023829 
     94 H          19.414148  -28.995811   -2.722058 H         1 <1>         0.023829 
     95 H          23.572293  -32.163054    1.940993 H         1 <1>         0.023525 
     96 H          22.747272  -30.751227    2.593445 H         1 <1>         0.023525 
     97 H          24.405921  -30.673119    2.023467 H         1 <1>         0.023525 
     98 H          13.231942  -25.439511    1.057593 H         1 <1>         0.023587 
     99 H          14.370508  -25.268766   -0.306034 H         1 <1>         0.023587 
    100 H          14.885922  -25.425974    1.402312 H         1 <1>         0.023587 
    101 H          13.831200  -28.947563    1.942885 H         1 <1>         0.023587 
    102 H          14.096019  -27.341338    2.658052 H         1 <1>         0.023587 
    103 H          12.584032  -27.700464    1.844580 H         1 <1>         0.023587 
    104 H           8.281882  -29.203786   -1.361474 H         1 <1>         0.065129 
    105 H           8.922521  -28.564604    1.350581 H         1 <1>         0.072940 
    106 H          11.820475  -26.152435   -0.337914 H         1 <1>         0.093773 
    107 H          10.389236  -25.700161   -2.066343 H         1 <1>         0.067477 
    108 H           8.197471  -26.818600   -2.306152 H         1 <1>         0.064781 
    109 H           8.870436  -31.802519    0.203416 H         1 <1>         0.220293 
    110 H           6.904528  -27.564221    0.372736 H         1 <1>         0.210020 
    111 H           9.339190  -28.396177   -3.527246 H         1 <1>         0.210005 
    112 H           7.542196  -23.093433    1.776297 H         1 <1>         0.072940 
    113 H          10.894075  -24.562775    0.802709 H         1 <1>         0.093767 
    114 H          10.051411  -23.507476   -1.862255 H         1 <1>         0.067096 
    115 H           9.259855  -21.339488   -1.261777 H         1 <1>         0.064771 
    116 H           7.641138  -23.243683   -1.262913 H         1 <1>         0.065129 
    117 H           5.237341  -25.808996    1.633717 H         1 <1>         0.220293 
    118 H           9.894982  -22.026625    1.440336 H         1 <1>         0.210005 
    119 H           7.101710  -21.119996    0.587254 H         1 <1>         0.210020 
    120 H          11.843139  -22.113475   -1.429582 H         1 <1>         0.210110 
@<TRIPOS>BOND
     1    1    2 1    
     2    6    1 1    
     3    1   24 1    
     4    1   25 1    
     5    3    2 1    
     6    2   59 1    
     7    2   60 1    
     8    4    3 1    
     9    3   61 1    
    10    3   62 1    
    11    5    4 1    
    12    7    4 1    
    13    4   30 1    
    14    5    6 1    
    15   10    5 1    
    16    5   63 1    
    17    6   64 1    
    18    6   65 1    
    19    8    7 1    
    20    7   66 1    
    21    7   67 1    
    22    9    8 1    
    23    8   68 1    
    24    8   69 1    
    25    9   10 1    
    26   11    9 1    
    27    9   29 1    
    28   14   10 2    
    29   12   11 1    
    30   15   11 1    
    31   11   28 1    
    32   12   13 1    
    33   18   12 1    
    34   12   70 1    
    35   13   14 1    
    36   13   58 2    
    37   14   71 1    
    38   16   15 1    
    39   15   72 1    
    40   15   73 1    
    41   17   16 1    
    42   16   74 1    
    43   16   75 1    
    44   17   18 1    
    45   19   17 1    
    46   17   76 1    
    47   22   18 1    
    48   18   27 1    
    49   20   19 1    
    50   19   31 1    
    51   19   32 1    
    52   20   21 1    
    53   33   20 1    
    54   20   77 1    
    55   21   22 1    
    56   21   78 1    
    57   21   79 1    
    58   22   80 1    
    59   22   81 1    
    60   25   23 1    
    61   23   82 1    
    62   24   83 1    
    63   24   84 1    
    64   24   85 1    
    65   25   26 2    
    66   27   86 1    
    67   27   87 1    
    68   27   88 1    
    69   28   89 1    
    70   28   90 1    
    71   28   91 1    
    72   29   92 1    
    73   29   93 1    
    74   29   94 1    
    75   30   95 1    
    76   30   96 1    
    77   30   97 1    
    78   31   98 1    
    79   31   99 1    
    80   31  100 1    
    81   32  101 1    
    82   32  102 1    
    83   32  103 1    
    84   37   33 1    
    85   34   35 1    
    86   39   34 1    
    87   34   43 1    
    88   34  104 1    
    89   36   35 1    
    90   35   40 1    
    91   35  105 1    
    92   37   36 1    
    93   38   37 1    
    94   37  106 1    
    95   38   39 1    
    96   54   38 1    
    97   38  107 1    
    98   39   44 1    
    99   39  108 1    
   100   40   41 1    
   101   40   42 2    
   102   41  109 1    
   103   43  110 1    
   104   44  111 1    
   105   46   45 1    
   106   45   50 1    
   107   45   51 1    
   108   45  112 1    
   109   47   46 1    
   110   47   48 1    
   111   47   54 1    
   112   47  113 1    
   113   48   49 1    
   114   48   57 1    
   115   48  114 1    
   116   49   50 1    
   117   49   55 1    
   118   49  115 1    
   119   50   56 1    
   120   50  116 1    
   121   51   52 1    
   122   51   53 2    
   123   52  117 1    
   124   55  118 1    
   125   56  119 1    
   126   57  120 1    
@<TRIPOS>SUBSTRUCTURE
     1 ****       45 TEMP              0 ****  ****    0 ROOT 
@<TRIPOS>NORMAL
@<TRIPOS>FF_PBC
FORCE_FIELD_SETUP_FEATURE Force Field Setup information
v1.0  0 0.000000 0.000000 0.000000 0.000000 0.000000 0.000000 NONE 0 0 0 0 1 0 0 0 0 0 0 0 0
