@<TRIPOS>MOLECULE
MOL004891
   42    46     1     1     0
SMALL
GASTEIGER


@<TRIPOS>ATOM
      1 O           2.709916   -1.950270    1.103350 O.3       1 <1>        -0.335751 
      2 O           0.552192   -0.314506   -1.791845 O.3       1 <1>        -0.342970 
      3 O          -3.053440    0.686477    1.377664 O.3       1 <1>        -0.334125 
      4 O           5.282304    2.279889    1.596638 O.3       1 <1>        -0.359750 
      5 C           2.418524   -1.791549   -1.281542 C.3       1 <1>         0.041403 
      6 C           1.776606   -2.278565    0.047994 C.3       1 <1>         0.101511 
      7 C           0.494009   -1.497726    0.359107 C.ar      1 <1>         0.012984 
      8 C           1.346837   -1.385509   -2.315418 C.3       1 <1>         0.063837 
      9 C           3.202239   -0.617533   -0.722818 C.ar      1 <1>        -0.009135 
     10 C          -0.055041   -0.557228   -0.558697 C.ar      1 <1>         0.091434 
     11 C           3.308396   -0.800674    0.603457 C.ar      1 <1>         0.083029 
     12 C          -1.286226    0.181691   -0.195800 C.ar      1 <1>         0.035092 
     13 C          -0.181840   -1.727214    1.660008 C.ar      1 <1>        -0.051140 
     14 C          -1.909841   -0.036177    1.038881 C.ar      1 <1>         0.086885 
     15 C           3.779129    0.558588   -1.409507 C.ar      1 <1>        -0.053260 
     16 C          -3.929958    1.030316    0.287783 C.3       1 <1>         0.088837 
     17 C          -1.346420   -1.019156    1.990963 C.ar      1 <1>        -0.030559 
     18 C           4.021304    0.170765    1.461611 C.ar      1 <1>        -0.001604 
     19 C          -1.907631    1.191959   -1.130582 C.2       1 <1>        -0.050886 
     20 C          -3.156733    1.599012   -0.882473 C.2       1 <1>        -0.051917 
     21 C           4.465678    1.510549   -0.620671 C.ar      1 <1>        -0.031510 
     22 C           4.596215    1.321161    0.847111 C.ar      1 <1>         0.075043 
     23 C          -4.678525   -0.245127   -0.180133 C.3       1 <1>        -0.031936 
     24 C          -4.927919    2.081418    0.836690 C.3       1 <1>        -0.031936 
     25 H           3.123585   -2.538792   -1.680730 H         1 <1>         0.040099 
     26 H           1.534424   -3.352945    0.033601 H         1 <1>         0.065909 
     27 H           1.824557   -1.037235   -3.244147 H         1 <1>         0.057187 
     28 H           0.705315   -2.249544   -2.553895 H         1 <1>         0.057187 
     29 H           0.231926   -2.446714    2.359040 H         1 <1>         0.062270 
     30 H           3.676125    0.684402   -2.481343 H         1 <1>         0.062198 
     31 H          -1.840069   -1.183725    2.942925 H         1 <1>         0.064358 
     32 H           4.093848   -0.004872    2.528537 H         1 <1>         0.066918 
     33 H          -1.342324    1.566434   -1.984179 H         1 <1>         0.062283 
     34 H          -3.625827    2.329103   -1.542920 H         1 <1>         0.060053 
     35 H           4.902475    2.389196   -1.082933 H         1 <1>         0.064330 
     36 H          -3.966166   -0.990681   -0.564830 H         1 <1>         0.026052 
     37 H          -5.224348   -0.690457    0.665419 H         1 <1>         0.026052 
     38 H          -5.395933   -0.002372   -0.978750 H         1 <1>         0.026052 
     39 H          -4.376707    2.979448    1.155534 H         1 <1>         0.026052 
     40 H          -5.661484    2.368831    0.067790 H         1 <1>         0.026052 
     41 H          -5.466060    1.674311    1.706468 H         1 <1>         0.026052 
     42 H           5.286685    2.113217    2.532337 H         1 <1>         0.217315 
@<TRIPOS>BOND
     1    1    6 1    
     2   11    1 1    
     3    8    2 1    
     4    2   10 1    
     5   14    3 1    
     6    3   16 1    
     7   22    4 1    
     8    4   42 1    
     9    5    6 1    
    10    5    8 1    
    11    9    5 1    
    12    5   25 1    
    13    6    7 1    
    14    6   26 1    
    15    7   10 2    
    16    7   13 1    
    17    8   27 1    
    18    8   28 1    
    19   11    9 2    
    20    9   15 1    
    21   10   12 1    
    22   18   11 1    
    23   12   14 2    
    24   12   19 1    
    25   13   17 2    
    26   13   29 1    
    27   17   14 1    
    28   15   21 2    
    29   15   30 1    
    30   16   20 1    
    31   16   23 1    
    32   16   24 1    
    33   17   31 1    
    34   18   22 2    
    35   18   32 1    
    36   19   20 2    
    37   19   33 1    
    38   20   34 1    
    39   21   22 1    
    40   21   35 1    
    41   23   36 1    
    42   23   37 1    
    43   23   38 1    
    44   24   39 1    
    45   24   40 1    
    46   24   41 1    
@<TRIPOS>SUBSTRUCTURE
     1 ****        1 TEMP              0 ****  ****    0 ROOT 
@<TRIPOS>NORMAL
@<TRIPOS>FF_PBC
FORCE_FIELD_SETUP_FEATURE Force Field Setup information
v1.0  0 0.000000 0.000000 0.000000 0.000000 0.000000 0.000000 NONE 0 0 0 0 1 0 0 0 0 0 0 0 0
