@<TRIPOS>MOLECULE
MOL002237
   38    39     1     1     0
SMALL
GASTEIGER


@<TRIPOS>ATOM
      1 C           0.335416   -1.936190    0.008254 C.ar      1 <1>         0.080364 
      2 C           1.216177   -2.734346    0.892695 C.ar      1 <1>        -0.029099 
      3 C           0.662946   -3.662391    1.783086 C.ar      1 <1>        -0.028730 
      4 C          -0.803356   -3.866875    1.848445 C.ar      1 <1>         0.085585 
      5 C          -1.658703   -3.114017    0.975997 C.ar      1 <1>         0.078331 
      6 C          -1.058689   -2.133037    0.039390 C.ar      1 <1>        -0.016210 
      7 O          -1.313386   -4.794468    2.761334 O.3       1 <1>        -0.359051 
      8 C          -3.159852   -3.298396    0.991137 C.2       1 <1>         0.293814 
      9 O           0.896210   -0.998099   -0.854950 O.3       1 <1>        -0.312528 
     10 C           0.613186    0.394429   -0.618167 C.3       1 <1>         0.193643 
     11 O           1.163206    1.029674   -1.788893 O.3       1 <1>        -0.340168 
     12 C           0.991489    2.461645   -1.813635 C.3       1 <1>         0.113017 
     13 C           1.765846    3.080825   -0.624673 C.3       1 <1>         0.111896 
     14 C           1.227355    2.484082    0.697480 C.3       1 <1>         0.114074 
     15 C           1.290097    0.935064    0.674279 C.3       1 <1>         0.134509 
     16 C           1.517558    3.012336   -3.164159 C.3       1 <1>         0.073015 
     17 O           2.017347    3.005403    1.784109 O.3       1 <1>        -0.386401 
     18 O           1.591857    4.509948   -0.629107 O.3       1 <1>        -0.386488 
     19 O           0.641837    0.513413    1.893546 O.3       1 <1>        -0.384091 
     20 O           0.672392    2.549272   -4.235183 O.3       1 <1>        -0.392366 
     21 O          -3.925288   -2.605112    0.144503 O.3       1 <1>        -0.327426 
     22 O          -3.658059   -4.085530    1.781804 O.2       1 <1>        -0.259337 
     23 H           2.291238   -2.592139    0.845786 H         1 <1>         0.064409 
     24 H           1.307588   -4.243303    2.433975 H         1 <1>         0.064421 
     25 H          -1.696011   -1.563317   -0.626168 H         1 <1>         0.065186 
     26 H          -2.264925   -4.838120    2.789477 H         1 <1>         0.217341 
     27 H          -0.473317    0.573560   -0.576432 H         1 <1>         0.094159 
     28 H          -0.075188    2.735342   -1.747468 H         1 <1>         0.064668 
     29 H           2.834685    2.824395   -0.725863 H         1 <1>         0.064673 
     30 H           0.176628    2.802367    0.816504 H         1 <1>         0.064758 
     31 H           2.351661    0.633863    0.664034 H         1 <1>         0.067108 
     32 H           1.508974    4.115139   -3.143980 H         1 <1>         0.058370 
     33 H           2.553763    2.666150   -3.312206 H         1 <1>         0.058370 
     34 H           1.730612    2.662970    2.626580 H         1 <1>         0.210005 
     35 H           2.036092    4.921932    0.107183 H         1 <1>         0.210004 
     36 H           0.704118   -0.418051    2.067132 H         1 <1>         0.210111 
     37 H           0.954212    2.850687   -5.093910 H         1 <1>         0.209508 
     38 H          -4.849722   -2.806507    0.243263 H         1 <1>         0.220556 
@<TRIPOS>BOND
     1    1    2 1    
     2    1    6 2    
     3    1    9 1    
     4    2    3 2    
     5    2   23 1    
     6    3    4 1    
     7    3   24 1    
     8    4    5 2    
     9    4    7 1    
    10    5    6 1    
    11    5    8 1    
    12    6   25 1    
    13    7   26 1    
    14    8   21 1    
    15    8   22 2    
    16    9   10 1    
    17   10   11 1    
    18   10   15 1    
    19   10   27 1    
    20   11   12 1    
    21   12   13 1    
    22   12   16 1    
    23   12   28 1    
    24   13   14 1    
    25   13   18 1    
    26   13   29 1    
    27   14   15 1    
    28   14   17 1    
    29   14   30 1    
    30   15   19 1    
    31   15   31 1    
    32   16   20 1    
    33   16   32 1    
    34   16   33 1    
    35   17   34 1    
    36   18   35 1    
    37   19   36 1    
    38   20   37 1    
    39   21   38 1    
@<TRIPOS>SUBSTRUCTURE
     1 ****        1 TEMP              0 ****  ****    0 ROOT 
@<TRIPOS>NORMAL
@<TRIPOS>FF_PBC
FORCE_FIELD_SETUP_FEATURE Force Field Setup information
v1.0  0 0.000000 0.000000 0.000000 0.000000 0.000000 0.000000 NONE 0 0 0 0 1 0 0 0 0 0 0 0 0
