@<TRIPOS>MOLECULE
MOL001919
   56    59     1     1     0
SMALL
GASTEIGER


@<TRIPOS>ATOM
      1 O           5.191520   -0.281879   -0.441361 O.3       1 <1>        -0.391248 
      2 O          -3.861995    2.555709   -0.414443 O.2       1 <1>        -0.287581 
      3 O          -5.638121   -1.709420    0.657607 O.3       1 <1>        -0.356038 
      4 O          -6.281969    1.154454    0.400842 O.2       1 <1>        -0.281400 
      5 C           0.855655   -0.739677    0.179095 C.3       1 <1>        -0.021798 
      6 C           1.494549    0.658979   -0.179866 C.3       1 <1>        -0.027564 
      7 C          -1.551733    0.454191    0.095978 C.3       1 <1>        -0.008677 
      8 C          -0.634529   -0.740552   -0.356844 C.3       1 <1>        -0.010334 
      9 C           3.047844    0.814278    0.055045 C.3       1 <1>        -0.005580 
     10 C           0.629930    1.850888    0.337385 C.3       1 <1>        -0.048579 
     11 C          -0.821158    1.791557   -0.221860 C.3       1 <1>        -0.045576 
     12 C          -2.915052    0.344400   -0.686667 C.3       1 <1>         0.067358 
     13 C           1.694156   -1.821542   -0.593292 C.3       1 <1>        -0.044448 
     14 C           3.778445   -0.329187   -0.721222 C.3       1 <1>         0.060638 
     15 C           3.229934   -1.734032   -0.368980 C.3       1 <1>        -0.025822 
     16 C           0.865342   -1.112929    1.700564 C.3       1 <1>        -0.058736 
     17 C          -1.389193   -2.061487   -0.277922 C.2       1 <1>        -0.079469 
     18 C          -1.910135    0.430426    1.624157 C.3       1 <1>        -0.057799 
     19 C          -3.553638   -0.936666   -0.205352 C.2       1 <1>        -0.000041 
     20 C           3.574922    2.160546   -0.550545 C.3       1 <1>        -0.057190 
     21 C           3.478348    0.826370    1.555760 C.3       1 <1>        -0.057190 
     22 C          -2.902056    0.289335   -2.247355 C.3       1 <1>        -0.047689 
     23 C          -3.988954    1.344840   -0.326689 C.2       1 <1>         0.215623 
     24 C          -2.725759   -2.156052   -0.214997 C.2       1 <1>        -0.058672 
     25 C          -4.817266   -0.751859    0.203142 C.2       1 <1>         0.127195 
     26 C          -5.199049    0.659168    0.129977 C.2       1 <1>         0.251605 
     27 H           1.406104    0.741108   -1.276277 H         1 <1>         0.031219 
     28 H          -0.499818   -0.609299   -1.437705 H         1 <1>         0.035406 
     29 H           1.030189    2.809936   -0.023780 H         1 <1>         0.026846 
     30 H           0.641063    1.910063    1.431847 H         1 <1>         0.026846 
     31 H          -1.395729    2.640919    0.181400 H         1 <1>         0.027116 
     32 H          -0.752583    1.929677   -1.310751 H         1 <1>         0.027116 
     33 H           1.526895   -1.730622   -1.679134 H         1 <1>         0.027158 
     34 H           1.401307   -2.840488   -0.299749 H         1 <1>         0.027158 
     35 H           3.626703   -0.169099   -1.804507 H         1 <1>         0.059852 
     36 H           3.524300   -1.997735    0.655202 H         1 <1>         0.029038 
     37 H           3.719102   -2.473930   -1.025933 H         1 <1>         0.029038 
     38 H          -0.051092   -1.650607    1.979665 H         1 <1>         0.023534 
     39 H           1.678809   -1.793550    1.977838 H         1 <1>         0.023534 
     40 H           0.960813   -0.237369    2.351359 H         1 <1>         0.023534 
     41 H          -0.851204   -3.007278   -0.284602 H         1 <1>         0.057526 
     42 H          -2.273165   -0.553423    1.953472 H         1 <1>         0.023563 
     43 H          -1.082160    0.698010    2.281928 H         1 <1>         0.023563 
     44 H          -2.696518    1.164691    1.850953 H         1 <1>         0.023563 
     45 H           3.295418    3.028990    0.063325 H         1 <1>         0.023587 
     46 H           4.674509    2.162715   -0.603467 H         1 <1>         0.023587 
     47 H           3.197470    2.320586   -1.572004 H         1 <1>         0.023587 
     48 H           3.341402   -0.133626    2.060521 H         1 <1>         0.023587 
     49 H           4.548850    1.068144    1.641122 H         1 <1>         0.023587 
     50 H           2.924501    1.592159    2.116734 H         1 <1>         0.023587 
     51 H          -2.385250   -0.593489   -2.648045 H         1 <1>         0.024257 
     52 H          -3.936149    0.229453   -2.623890 H         1 <1>         0.024257 
     53 H          -2.454019    1.193400   -2.681619 H         1 <1>         0.024257 
     54 H          -3.186412   -3.142925   -0.165683 H         1 <1>         0.061837 
     55 H           5.698981   -0.927545   -0.923075 H         1 <1>         0.209800 
     56 H          -5.279956   -2.587927    0.684298 H         1 <1>         0.217469 
@<TRIPOS>BOND
     1   14    1 1    
     2    1   55 1    
     3   23    2 2    
     4   25    3 1    
     5    3   56 1    
     6   26    4 2    
     7    5    6 1    
     8    8    5 1    
     9    5   13 1    
    10    5   16 1    
    11    6    9 1    
    12   10    6 1    
    13    6   27 1    
    14    7    8 1    
    15    7   11 1    
    16   12    7 1    
    17    7   18 1    
    18    8   17 1    
    19    8   28 1    
    20    9   14 1    
    21    9   20 1    
    22    9   21 1    
    23   11   10 1    
    24   10   29 1    
    25   10   30 1    
    26   11   31 1    
    27   11   32 1    
    28   12   19 1    
    29   12   22 1    
    30   23   12 1    
    31   13   15 1    
    32   13   33 1    
    33   13   34 1    
    34   15   14 1    
    35   14   35 1    
    36   15   36 1    
    37   15   37 1    
    38   16   38 1    
    39   16   39 1    
    40   16   40 1    
    41   24   17 2    
    42   17   41 1    
    43   18   42 1    
    44   18   43 1    
    45   18   44 1    
    46   19   24 1    
    47   19   25 2    
    48   20   45 1    
    49   20   46 1    
    50   20   47 1    
    51   21   48 1    
    52   21   49 1    
    53   21   50 1    
    54   22   51 1    
    55   22   52 1    
    56   22   53 1    
    57   23   26 1    
    58   24   54 1    
    59   25   26 1    
@<TRIPOS>SUBSTRUCTURE
     1 ****        5 TEMP              0 ****  ****    0 ROOT 
@<TRIPOS>NORMAL
@<TRIPOS>FF_PBC
FORCE_FIELD_SETUP_FEATURE Force Field Setup information
v1.0  0 0.000000 0.000000 0.000000 0.000000 0.000000 0.000000 NONE 0 0 0 0 1 0 0 0 0 0 0 0 0
