@<TRIPOS>MOLECULE
MOL000933
   39    39     1     1     0
SMALL
GASTEIGER


@<TRIPOS>ATOM
      1 C          -2.224551   -1.709625    1.665590 C.3       1 <1>        -0.013035 
      2 C          -2.053422   -3.189805    1.914712 C.2       1 <1>        -0.081015 
      3 C          -1.162822   -3.952386    1.266238 C.2       1 <1>        -0.075932 
      4 C          -0.276849   -3.368139    0.194902 C.3       1 <1>        -0.028292 
      5 C          -1.004139   -2.194570   -0.501037 C.3       1 <1>        -0.027529 
      6 C          -1.378866   -1.154687    0.535743 C.2       1 <1>        -0.066518 
      7 C          -1.008699    0.142558    0.467384 C.2       1 <1>        -0.072782 
      8 C          -0.063381    0.640042   -0.618562 C.3       1 <1>        -0.028300 
      9 C          -1.502313    1.185420    1.456113 C.3       1 <1>        -0.043515 
     10 C           0.486906    2.093470   -0.525301 C.3       1 <1>        -0.030839 
     11 C           1.534687    2.380196   -1.578842 C.2       1 <1>        -0.084989 
     12 C           2.237878    3.522073   -1.668584 C.2       1 <1>        -0.079608 
     13 C           3.278702    3.719870   -2.750684 C.3       1 <1>        -0.044049 
     14 C           2.068632    4.695365   -0.726128 C.3       1 <1>        -0.044049 
     15 C          -0.982752   -5.424574    1.559847 C.3       1 <1>        -0.043768 
     16 H          -1.954470   -1.248961    2.627488 H         1 <1>         0.035246 
     17 H          -3.283723   -1.507570    1.443468 H         1 <1>         0.035246 
     18 H          -2.692988   -3.638482    2.676449 H         1 <1>         0.057470 
     19 H          -0.037400   -4.133153   -0.562097 H         1 <1>         0.031294 
     20 H           0.663907   -3.022159    0.651591 H         1 <1>         0.031294 
     21 H          -0.380745   -1.840158   -1.333181 H         1 <1>         0.031320 
     22 H          -1.941077   -2.568967   -0.944639 H         1 <1>         0.031320 
     23 H          -0.564587    0.536636   -1.594544 H         1 <1>         0.031294 
     24 H           0.825919   -0.010821   -0.594215 H         1 <1>         0.031294 
     25 H          -2.387248    0.882361    2.030097 H         1 <1>         0.027444 
     26 H          -0.697922    1.431145    2.164834 H         1 <1>         0.027444 
     27 H          -1.811889    2.099781    0.933443 H         1 <1>         0.027444 
     28 H           0.937447    2.240367    0.468824 H         1 <1>         0.031044 
     29 H          -0.327593    2.817973   -0.677842 H         1 <1>         0.031044 
     30 H           1.721849    1.595988   -2.313305 H         1 <1>         0.057155 
     31 H           4.252470    3.935636   -2.285830 H         1 <1>         0.027427 
     32 H           2.993424    4.574545   -3.382321 H         1 <1>         0.027427 
     33 H           3.401161    2.841441   -3.402195 H         1 <1>         0.027427 
     34 H           3.006439    4.848841   -0.171599 H         1 <1>         0.027427 
     35 H           1.856606    5.602684   -1.311461 H         1 <1>         0.027427 
     36 H           1.257762    4.577667    0.004952 H         1 <1>         0.027427 
     37 H          -1.253005   -6.013534    0.670535 H         1 <1>         0.027436 
     38 H           0.071032   -5.620248    1.809123 H         1 <1>         0.027436 
     39 H          -1.604378   -5.766511    2.401135 H         1 <1>         0.027436 
@<TRIPOS>BOND
     1    1    2 1    
     2    1    6 1    
     3    1   16 1    
     4    1   17 1    
     5    2    3 2    
     6    2   18 1    
     7    3    4 1    
     8    3   15 1    
     9    4    5 1    
    10    4   19 1    
    11    4   20 1    
    12    5    6 1    
    13    5   21 1    
    14    5   22 1    
    15    6    7 2    
    16    7    8 1    
    17    7    9 1    
    18    8   10 1    
    19    8   23 1    
    20    8   24 1    
    21    9   25 1    
    22    9   26 1    
    23    9   27 1    
    24   10   11 1    
    25   10   28 1    
    26   10   29 1    
    27   11   12 2    
    28   11   30 1    
    29   12   13 1    
    30   12   14 1    
    31   13   31 1    
    32   13   32 1    
    33   13   33 1    
    34   14   34 1    
    35   14   35 1    
    36   14   36 1    
    37   15   37 1    
    38   15   38 1    
    39   15   39 1    
@<TRIPOS>SUBSTRUCTURE
     1 ****        1 TEMP              0 ****  ****    0 ROOT 
@<TRIPOS>NORMAL
@<TRIPOS>FF_PBC
FORCE_FIELD_SETUP_FEATURE Force Field Setup information
v1.0  0 0.000000 0.000000 0.000000 0.000000 0.000000 0.000000 NONE 0 0 0 0 1 0 0 0 0 0 0 0 0
