@<TRIPOS>MOLECULE
MOL001878
   61    63     1     1     0
SMALL
GASTEIGER


@<TRIPOS>ATOM
      1 C          -2.040747   -4.002696   -0.306768 C.3       1 <1>         0.155107 
      2 C          -2.255182   -2.473780   -0.491210 C.3       1 <1>         0.014947 
      3 C          -1.678577   -1.891570   -1.807879 C.3       1 <1>         0.100544 
      4 C          -0.170782   -2.256742   -1.914605 C.3       1 <1>         0.120920 
      5 C           0.028895   -3.798456   -1.878528 C.3       1 <1>         0.087473 
      6 C          -0.555042   -4.389174   -0.567814 C.3       1 <1>         0.014083 
      7 C          -3.073410   -4.836822   -1.066775 C.2       1 <1>         0.291720 
      8 O          -3.937713   -5.440959   -0.453387 O.2       1 <1>        -0.261963 
      9 O          -3.073051   -4.946372   -2.397655 O.3       1 <1>        -0.329104 
     10 O          -0.573501   -4.419486   -3.031214 O.3       1 <1>        -0.389012 
     11 O          -2.273151   -4.218990    1.104703 O.3       1 <1>        -0.378361 
     12 O           0.467024   -1.628724   -0.778858 O.3       1 <1>        -0.303337 
     13 C           1.806222   -1.587240   -0.803049 C.2       1 <1>         0.287013 
     14 C           2.535308   -1.104781    0.383818 C.2       1 <1>         0.010504 
     15 C           1.924365   -0.841314    1.547187 C.2       1 <1>        -0.048856 
     16 O           2.447326   -1.933457   -1.782631 O.2       1 <1>        -0.259867 
     17 C           2.646203   -0.343145    2.782209 C.ar      1 <1>        -0.022259 
     18 C           2.083552   -0.682917    4.112367 C.ar      1 <1>        -0.022249 
     19 C           2.711602   -0.261218    5.289563 C.ar      1 <1>         0.102746 
     20 C           3.957867    0.543063    5.221972 C.ar      1 <1>         0.102220 
     21 C           4.498895    0.881520    3.959572 C.ar      1 <1>        -0.028849 
     22 C           3.827960    0.433273    2.716104 C.ar      1 <1>        -0.051998 
     23 O           4.570461    0.949660    6.412201 O.3       1 <1>        -0.357274 
     24 O           2.157059   -0.603917    6.523808 O.3       1 <1>        -0.357261 
     25 O          -1.842522   -0.457415   -1.715894 O.3       1 <1>        -0.305741 
     26 C          -1.588925    0.222504   -2.845151 C.2       1 <1>         0.286936 
     27 C          -1.540540    1.695158   -2.815850 C.2       1 <1>         0.010502 
     28 C          -1.560242    2.404787   -1.679795 C.2       1 <1>        -0.048856 
     29 O          -1.401627   -0.340843   -3.912383 O.2       1 <1>        -0.259868 
     30 C          -1.519849    3.918497   -1.638610 C.ar      1 <1>        -0.022259 
     31 C          -0.918256    4.577576   -0.453172 C.ar      1 <1>        -0.022249 
     32 C          -0.846836    5.972041   -0.362772 C.ar      1 <1>         0.102746 
     33 C          -1.377651    6.817612   -1.461428 C.ar      1 <1>         0.102220 
     34 C          -1.960861    6.199660   -2.594098 C.ar      1 <1>        -0.028849 
     35 C          -2.036493    4.722028   -2.679839 C.ar      1 <1>        -0.051998 
     36 O          -1.290285    8.209781   -1.352797 O.3       1 <1>        -0.357274 
     37 O          -0.272550    6.557924    0.766559 O.3       1 <1>        -0.357261 
     38 H          -3.330885   -2.244894   -0.423101 H         1 <1>         0.032408 
     39 H          -1.757880   -1.952548    0.343443 H         1 <1>         0.032408 
     40 H          -2.262765   -2.270900   -2.660264 H         1 <1>         0.063015 
     41 H           0.221185   -1.863330   -2.867218 H         1 <1>         0.065433 
     42 H           1.115568   -3.998607   -1.907635 H         1 <1>         0.062110 
     43 H          -0.453595   -5.486090   -0.567484 H         1 <1>         0.032382 
     44 H           0.048830   -3.996075    0.266967 H         1 <1>         0.032382 
     45 H          -2.354553   -4.516489   -2.838447 H         1 <1>         0.220301 
     46 H          -0.272731   -5.320250   -3.156873 H         1 <1>         0.209892 
     47 H          -2.226472   -5.135972    1.358989 H         1 <1>         0.210848 
     48 H           3.610904   -0.984843    0.269857 H         1 <1>         0.067735 
     49 H           0.848969   -1.000325    1.634139 H         1 <1>         0.062526 
     50 H           1.173717   -1.268781    4.183087 H         1 <1>         0.064993 
     51 H           5.407184    1.470321    3.889094 H         1 <1>         0.064421 
     52 H           4.256301    0.716858    1.761670 H         1 <1>         0.062425 
     53 H           5.370647    1.448842    6.291279 H         1 <1>         0.217422 
     54 H           2.679074   -0.262534    7.242964 H         1 <1>         0.217422 
     55 H          -1.472754    2.184634   -3.785638 H         1 <1>         0.067735 
     56 H          -1.594759    1.879305   -0.724865 H         1 <1>         0.062526 
     57 H          -0.523744    3.977186    0.359274 H         1 <1>         0.064993 
     58 H          -2.356809    6.799021   -3.407001 H         1 <1>         0.064421 
     59 H          -2.501070    4.275473   -3.551455 H         1 <1>         0.062425 
     60 H          -1.607621    8.683110   -2.113875 H         1 <1>         0.217422 
     61 H          -0.291932    7.508013    0.709266 H         1 <1>         0.217422 
@<TRIPOS>BOND
     1    1    2 1    
     2    1    6 1    
     3    1    7 1    
     4    1   11 1    
     5    2    3 1    
     6    2   38 1    
     7    2   39 1    
     8    3    4 1    
     9    3   25 1    
    10    3   40 1    
    11    4    5 1    
    12    4   12 1    
    13    4   41 1    
    14    5    6 1    
    15    5   10 1    
    16    5   42 1    
    17    6   43 1    
    18    6   44 1    
    19    7    8 2    
    20    7    9 1    
    21    9   45 1    
    22   10   46 1    
    23   11   47 1    
    24   12   13 1    
    25   13   14 1    
    26   13   16 2    
    27   14   15 2    
    28   14   48 1    
    29   15   17 1    
    30   15   49 1    
    31   17   18 1    
    32   17   22 2    
    33   18   19 2    
    34   18   50 1    
    35   19   20 1    
    36   19   24 1    
    37   20   21 2    
    38   20   23 1    
    39   21   22 1    
    40   21   51 1    
    41   22   52 1    
    42   23   53 1    
    43   24   54 1    
    44   25   26 1    
    45   26   27 1    
    46   26   29 2    
    47   27   28 2    
    48   27   55 1    
    49   28   30 1    
    50   28   56 1    
    51   30   31 1    
    52   30   35 2    
    53   31   32 2    
    54   31   57 1    
    55   32   33 1    
    56   32   37 1    
    57   33   34 2    
    58   33   36 1    
    59   34   35 1    
    60   34   58 1    
    61   35   59 1    
    62   36   60 1    
    63   37   61 1    
@<TRIPOS>SUBSTRUCTURE
     1 ****        1 TEMP              0 ****  ****    0 ROOT 
@<TRIPOS>NORMAL
@<TRIPOS>FF_PBC
FORCE_FIELD_SETUP_FEATURE Force Field Setup information
v1.0  0 0.000000 0.000000 0.000000 0.000000 0.000000 0.000000 NONE 0 0 0 0 1 0 0 0 0 0 0 0 0
