@<TRIPOS>MOLECULE
MOL004603
   25    24     1     1     0
SMALL
GASTEIGER


@<TRIPOS>ATOM
      1 C           0.373216   -0.054083   -0.076913 C.2       1 <1>        -0.049180 
      2 C           0.324773   -1.535411   -0.386284 C.3       1 <1>        -0.030591 
      3 C          -0.720906    0.705668    0.095381 C.2       1 <1>        -0.080861 
      4 C          -2.162414    0.251630    0.027916 C.3       1 <1>        -0.037054 
      5 C           1.694963    0.601395    0.044001 C.2       1 <1>        -0.054658 
      6 C           0.214127   -2.340702    0.933857 C.3       1 <1>        -0.061267 
      7 C          -2.790145    0.729354   -1.305152 C.3       1 <1>        -0.061803 
      8 C           2.046876    1.312474    1.328073 C.3       1 <1>        -0.040012 
      9 C           2.574785    0.570287   -0.965370 C.2       1 <1>        -0.095513 
     10 H          -0.578614    1.768888    0.298169 H         1 <1>         0.057471 
     11 H          -0.502630   -1.775638   -1.071415 H         1 <1>         0.031050 
     12 H           1.251900   -1.852407   -0.889116 H         1 <1>         0.031050 
     13 H          -2.281296   -0.838004    0.109204 H         1 <1>         0.030484 
     14 H          -2.710575    0.699540    0.873045 H         1 <1>         0.030484 
     15 H           0.179963   -3.420530    0.719131 H         1 <1>         0.023287 
     16 H           1.088885   -2.136440    1.571594 H         1 <1>         0.023287 
     17 H          -0.692810   -2.066366    1.492769 H         1 <1>         0.023287 
     18 H          -3.847714    0.426212   -1.360909 H         1 <1>         0.023270 
     19 H          -2.734365    1.826464   -1.385026 H         1 <1>         0.023270 
     20 H          -2.250108    0.284987   -2.156004 H         1 <1>         0.023270 
     21 H           1.319840    1.076595    2.120164 H         1 <1>         0.027744 
     22 H           2.046363    2.399781    1.159269 H         1 <1>         0.027744 
     23 H           3.044649    1.003859    1.675305 H         1 <1>         0.027744 
     24 H           3.549803    1.048068   -0.872929 H         1 <1>         0.053748 
     25 H           2.344284    0.076581   -1.908752 H         1 <1>         0.053748 
@<TRIPOS>BOND
     1    1    2 1    
     2    1    3 2    
     3    1    5 1    
     4    2    6 1    
     5    2   11 1    
     6    2   12 1    
     7    3    4 1    
     8    3   10 1    
     9    4    7 1    
    10    4   13 1    
    11    4   14 1    
    12    5    8 1    
    13    5    9 2    
    14    6   15 1    
    15    6   16 1    
    16    6   17 1    
    17    7   18 1    
    18    7   19 1    
    19    7   20 1    
    20    8   21 1    
    21    8   22 1    
    22    8   23 1    
    23    9   24 1    
    24    9   25 1    
@<TRIPOS>SUBSTRUCTURE
     1 ****        1 TEMP              0 ****  ****    0 ROOT 
@<TRIPOS>NORMAL
@<TRIPOS>FF_PBC
FORCE_FIELD_SETUP_FEATURE Force Field Setup information
v1.0  0 0.000000 0.000000 0.000000 0.000000 0.000000 0.000000 NONE 0 0 0 0 1 0 0 0 0 0 0 0 0
