@<TRIPOS>MOLECULE
MOL000724
   36    35     1     1     0
SMALL
GASTEIGER


@<TRIPOS>ATOM
      1 C           1.167038    1.249199   -0.000115 C.2       1 <1>        -0.076230 
      2 C          -0.176103    1.958980   -0.000128 C.3       1 <1>        -0.028563 
      3 C           1.308290   -0.087225   -0.000539 C.2       1 <1>        -0.084618 
      4 C           2.379397    2.157371    0.000424 C.3       1 <1>        -0.043778 
      5 C          -1.458081    1.081132   -0.000193 C.3       1 <1>        -0.030848 
      6 C           2.652297   -0.782389   -0.000485 C.3       1 <1>        -0.027851 
      7 C          -2.719042    1.915099   -0.000170 C.2       1 <1>        -0.084989 
      8 C           2.518475   -2.329502    0.000008 C.3       1 <1>         0.008973 
      9 C          -3.965880    1.416755    0.000079 C.2       1 <1>        -0.079608 
     10 C           3.859865   -3.023128    0.000026 C.2       1 <1>         0.130612 
     11 C          -5.148440    2.359860    0.000102 C.3       1 <1>        -0.044049 
     12 C          -4.295998   -0.060532    0.000406 C.3       1 <1>        -0.044049 
     13 C           3.882303   -4.529709    0.000154 C.3       1 <1>        -0.006054 
     14 O           4.905699   -2.394102   -0.000039 O.2       1 <1>        -0.297693 
     15 H          -0.209195    2.604122    0.893027 H         1 <1>         0.031285 
     16 H          -0.209138    2.604207   -0.893221 H         1 <1>         0.031285 
     17 H           0.436383   -0.737853   -0.000954 H         1 <1>         0.057165 
     18 H           2.097808    3.221493   -0.000488 H         1 <1>         0.027436 
     19 H           2.989357    1.975274    0.897455 H         1 <1>         0.027436 
     20 H           2.991107    1.974281   -0.895211 H         1 <1>         0.027436 
     21 H          -1.460654    0.448761   -0.902492 H         1 <1>         0.031044 
     22 H          -1.460545    0.448658    0.902035 H         1 <1>         0.031044 
     23 H           3.218786   -0.481419    0.895085 H         1 <1>         0.031141 
     24 H           3.218469   -0.482033   -0.896463 H         1 <1>         0.031141 
     25 H          -2.610049    3.000881   -0.000348 H         1 <1>         0.057155 
     26 H           1.960437   -2.647443   -0.895226 H         1 <1>         0.034442 
     27 H           1.960660   -2.646921    0.895563 H         1 <1>         0.034442 
     28 H          -6.109165    1.822584   -0.002504 H         1 <1>         0.027427 
     29 H          -5.112259    2.996937    0.896877 H         1 <1>         0.027427 
     30 H          -5.109645    3.000732   -0.893865 H         1 <1>         0.027427 
     31 H          -3.416431   -0.718144    0.000656 H         1 <1>         0.027427 
     32 H          -4.892662   -0.295498    0.894651 H         1 <1>         0.027427 
     33 H          -4.892439   -0.295957   -0.893870 H         1 <1>         0.027427 
     34 H           2.868582   -4.958115   -0.000099 H         1 <1>         0.030578 
     35 H           4.415136   -4.883152    0.895393 H         1 <1>         0.030578 
     36 H           4.415639   -4.883299   -0.894728 H         1 <1>         0.030578 
@<TRIPOS>BOND
     1    1    2 1    
     2    1    3 2    
     3    1    4 1    
     4    2    5 1    
     5    2   15 1    
     6    2   16 1    
     7    3    6 1    
     8    3   17 1    
     9    4   18 1    
    10    4   19 1    
    11    4   20 1    
    12    5    7 1    
    13    5   21 1    
    14    5   22 1    
    15    6    8 1    
    16    6   23 1    
    17    6   24 1    
    18    7    9 2    
    19    7   25 1    
    20    8   10 1    
    21    8   26 1    
    22    8   27 1    
    23    9   11 1    
    24    9   12 1    
    25   10   13 1    
    26   10   14 2    
    27   11   28 1    
    28   11   29 1    
    29   11   30 1    
    30   12   31 1    
    31   12   32 1    
    32   12   33 1    
    33   13   34 1    
    34   13   35 1    
    35   13   36 1    
@<TRIPOS>SUBSTRUCTURE
     1 ****        1 TEMP              0 ****  ****    0 ROOT 
@<TRIPOS>NORMAL
@<TRIPOS>FF_PBC
FORCE_FIELD_SETUP_FEATURE Force Field Setup information
v1.0  0 0.000000 0.000000 0.000000 0.000000 0.000000 0.000000 NONE 0 0 0 0 1 0 0 0 0 0 0 0 0
