@<TRIPOS>MOLECULE
MOL000204
   39    39     1     1     0
SMALL
GASTEIGER


@<TRIPOS>ATOM
      1 C           0.770747    0.507113   -0.557317 C.3       1 <1>        -0.011061 
      2 C          -0.589822    1.277352   -0.698933 C.3       1 <1>        -0.007811 
      3 C           0.592011   -1.038127   -0.448486 C.3       1 <1>        -0.039223 
      4 C           1.802512    1.054391    0.431630 C.2       1 <1>        -0.075785 
      5 C          -1.643740    0.781434    0.344483 C.3       1 <1>        -0.043098 
      6 C          -0.339542    2.752484   -0.407169 C.2       1 <1>        -0.084621 
      7 C          -1.176332    1.078041   -2.136565 C.3       1 <1>        -0.055559 
      8 C          -0.452237   -1.465623    0.616536 C.3       1 <1>        -0.019820 
      9 C           3.134494    1.480070   -0.159884 C.3       1 <1>        -0.043750 
     10 C           1.608320    1.176476    1.753469 C.2       1 <1>        -0.099420 
     11 C          -1.814043   -0.762517    0.373019 C.3       1 <1>        -0.045719 
     12 C          -0.455467    3.781262   -1.259234 C.2       1 <1>        -0.102094 
     13 C          -0.606248   -2.977256    0.662524 C.2       1 <1>        -0.076591 
     14 C          -0.188556   -3.657905    1.948236 C.3       1 <1>        -0.043777 
     15 C          -1.083809   -3.683627   -0.372510 C.2       1 <1>        -0.099446 
     16 H           1.261463    0.651587   -1.534425 H         1 <1>         0.035389 
     17 H           1.563626   -1.503154   -0.212611 H         1 <1>         0.027693 
     18 H           0.271843   -1.439977   -1.421818 H         1 <1>         0.027693 
     19 H          -2.620111    1.245176    0.127539 H         1 <1>         0.027384 
     20 H          -1.374789    1.104080    1.359002 H         1 <1>         0.027384 
     21 H          -0.031517    3.016842    0.605728 H         1 <1>         0.057195 
     22 H          -0.484753    1.447205   -2.908948 H         1 <1>         0.023821 
     23 H          -2.129346    1.618434   -2.243744 H         1 <1>         0.023821 
     24 H          -1.367886    0.023234   -2.369157 H         1 <1>         0.023821 
     25 H          -0.084817   -1.135428    1.598157 H         1 <1>         0.034560 
     26 H           2.969114    2.294139   -0.882206 H         1 <1>         0.027437 
     27 H           3.853040    1.841367    0.591228 H         1 <1>         0.027437 
     28 H           3.595554    0.627099   -0.681168 H         1 <1>         0.027437 
     29 H           2.386238    1.571207    2.405804 H         1 <1>         0.053441 
     30 H           0.696312    0.907505    2.270988 H         1 <1>         0.053441 
     31 H          -2.505928   -1.037402    1.187445 H         1 <1>         0.027124 
     32 H          -2.272370   -1.107772   -0.563762 H         1 <1>         0.027124 
     33 H          -0.243262    4.794833   -0.915831 H         1 <1>         0.053192 
     34 H          -0.753595    3.695671   -2.301414 H         1 <1>         0.053192 
     35 H          -0.794900   -3.271399    2.781421 H         1 <1>         0.027436 
     36 H           0.871900   -3.442590    2.148572 H         1 <1>         0.027436 
     37 H          -0.314185   -4.750699    1.912633 H         1 <1>         0.027436 
     38 H          -1.188033   -4.766673   -0.321302 H         1 <1>         0.053440 
     39 H          -1.388694   -3.219020   -1.308219 H         1 <1>         0.053440 
@<TRIPOS>BOND
     1    1    2 1    
     2    1    3 1    
     3    1    4 1    
     4    1   16 1    
     5    2    5 1    
     6    2    6 1    
     7    2    7 1    
     8    3    8 1    
     9    3   17 1    
    10    3   18 1    
    11    4    9 1    
    12    4   10 2    
    13    5   11 1    
    14    5   19 1    
    15    5   20 1    
    16    6   12 2    
    17    6   21 1    
    18    7   22 1    
    19    7   23 1    
    20    7   24 1    
    21    8   11 1    
    22    8   13 1    
    23    8   25 1    
    24    9   26 1    
    25    9   27 1    
    26    9   28 1    
    27   10   29 1    
    28   10   30 1    
    29   11   31 1    
    30   11   32 1    
    31   12   33 1    
    32   12   34 1    
    33   13   14 1    
    34   13   15 2    
    35   14   35 1    
    36   14   36 1    
    37   14   37 1    
    38   15   38 1    
    39   15   39 1    
@<TRIPOS>SUBSTRUCTURE
     1 ****        1 TEMP              0 ****  ****    0 ROOT 
@<TRIPOS>NORMAL
@<TRIPOS>FF_PBC
FORCE_FIELD_SETUP_FEATURE Force Field Setup information
v1.0  0 0.000000 0.000000 0.000000 0.000000 0.000000 0.000000 NONE 0 0 0 0 1 0 0 0 0 0 0 0 0
