@<TRIPOS>MOLECULE
MOL005401
   82    85     1     1     0
SMALL
GASTEIGER


@<TRIPOS>ATOM
      1 O          -1.677632    2.496243    0.161417 O.3       1 <1>        -0.391466 
      2 O          -3.685669   -4.232842   -3.368225 O.3       1 <1>        -0.391248 
      3 C           0.089192   -1.525387    0.844678 C.3       1 <1>        -0.029272 
      4 C          -1.477631   -1.301632    0.678851 C.3       1 <1>        -0.029442 
      5 C           1.006342   -0.252406    0.530788 C.3       1 <1>        -0.022998 
      6 C          -2.468614   -2.539458    0.444284 C.3       1 <1>        -0.025393 
      7 C          -1.770561   -3.840984   -0.099140 C.3       1 <1>        -0.027620 
      8 C           0.345047    1.185461    0.488917 C.3       1 <1>        -0.002808 
      9 C           0.614344   -2.895065    0.255304 C.3       1 <1>        -0.039986 
     10 C          -1.854335    0.039548   -0.027924 C.3       1 <1>        -0.022938 
     11 C          -0.384642   -4.036969    0.569710 C.3       1 <1>        -0.046264 
     12 C          -1.188703    1.244750    0.681007 C.3       1 <1>         0.059381 
     13 C          -1.893171   -4.093333   -1.654111 C.3       1 <1>        -0.005581 
     14 C           1.615384   -0.345696   -0.904083 C.3       1 <1>        -0.046451 
     15 C           0.788840    1.881127   -0.840944 C.3       1 <1>        -0.014460 
     16 C          -3.654161   -2.187904   -0.530229 C.3       1 <1>        -0.044737 
     17 C           2.019429    1.084043   -1.315346 C.3       1 <1>        -0.045657 
     18 C          -3.421443   -4.332221   -1.953127 C.3       1 <1>         0.060637 
     19 C           2.156080   -0.137353    1.597425 C.3       1 <1>        -0.058938 
     20 C          -3.137072   -2.907312    1.828079 C.3       1 <1>        -0.059026 
     21 C          -4.376586   -3.428103   -1.113433 C.3       1 <1>        -0.025831 
     22 C           2.008545   -3.383245    0.773204 C.3       1 <1>        -0.062128 
     23 C          -1.163318   -5.408991   -2.089800 C.3       1 <1>        -0.057190 
     24 C          -1.297404   -2.940792   -2.536763 C.3       1 <1>        -0.057190 
     25 C           1.077628    3.376298   -0.797973 C.2       1 <1>        -0.072794 
     26 C           0.286549    4.225221   -1.774807 C.3       1 <1>        -0.043505 
     27 C           1.989417    3.889719    0.046465 C.2       1 <1>        -0.081014 
     28 C           2.365945    5.350928    0.134577 C.3       1 <1>        -0.016057 
     29 C           3.624344    5.535324    0.954868 C.2       1 <1>        -0.081549 
     30 C           3.773479    6.381447    1.987735 C.2       1 <1>        -0.079326 
     31 C           5.076479    6.470535    2.753320 C.3       1 <1>        -0.044040 
     32 C           2.668296    7.299018    2.461265 C.3       1 <1>        -0.044040 
     33 H          -2.613493    2.626690    0.276846 H         1 <1>         0.209789 
     34 H          -4.577716   -4.453663   -3.618358 H         1 <1>         0.209800 
     35 H           0.231690   -1.721901    1.922712 H         1 <1>         0.031156 
     36 H          -1.767728   -0.975954    1.691262 H         1 <1>         0.030984 
     37 H          -2.327377   -4.709029    0.295086 H         1 <1>         0.031218 
     38 H           0.721480    1.827737    1.300842 H         1 <1>         0.033676 
     39 H           0.713255   -2.857819   -0.832923 H         1 <1>         0.030114 
     40 H          -2.933985    0.239813    0.047826 H         1 <1>         0.029305 
     41 H          -1.585237    0.045596   -1.090253 H         1 <1>         0.029305 
     42 H           0.011522   -5.017869    0.268315 H         1 <1>         0.027095 
     43 H          -0.484727   -4.090556    1.664496 H         1 <1>         0.027095 
     44 H          -1.423226    1.237703    1.762948 H         1 <1>         0.059628 
     45 H           2.482958   -1.012135   -0.996645 H         1 <1>         0.027088 
     46 H           0.844949   -0.670712   -1.619660 H         1 <1>         0.027088 
     47 H           0.013745    1.691915   -1.601471 H         1 <1>         0.034917 
     48 H          -4.412521   -1.574579   -0.016336 H         1 <1>         0.027149 
     49 H          -3.338915   -1.618408   -1.413372 H         1 <1>         0.027149 
     50 H           2.190444    1.180699   -2.401160 H         1 <1>         0.027124 
     51 H           2.941731    1.394199   -0.803792 H         1 <1>         0.027124 
     52 H          -3.674203   -5.374867   -1.681043 H         1 <1>         0.059852 
     53 H           2.797832   -1.016725    1.669510 H         1 <1>         0.023526 
     54 H           2.828424    0.710256    1.406477 H         1 <1>         0.023526 
     55 H           1.717190    0.020339    2.595300 H         1 <1>         0.023526 
     56 H          -3.743077   -2.071342    2.212434 H         1 <1>         0.023525 
     57 H          -2.380139   -3.131573    2.593121 H         1 <1>         0.023525 
     58 H          -3.810067   -3.774549    1.780798 H         1 <1>         0.023525 
     59 H          -5.217987   -3.093129   -1.742783 H         1 <1>         0.029037 
     60 H          -4.824264   -4.002010   -0.287114 H         1 <1>         0.029037 
     61 H           2.211050   -4.420996    0.466366 H         1 <1>         0.023251 
     62 H           2.846865   -2.812134    0.359477 H         1 <1>         0.023251 
     63 H           2.051265   -3.353389    1.872635 H         1 <1>         0.023251 
     64 H          -1.408632   -5.638311   -3.138781 H         1 <1>         0.023587 
     65 H          -0.068355   -5.324329   -2.023922 H         1 <1>         0.023587 
     66 H          -1.468711   -6.268173   -1.472839 H         1 <1>         0.023587 
     67 H          -1.176587   -2.021950   -1.965558 H         1 <1>         0.023587 
     68 H          -0.302529   -3.181383   -2.939731 H         1 <1>         0.023587 
     69 H          -1.920765   -2.698670   -3.407662 H         1 <1>         0.023587 
     70 H          -0.788397    4.017786   -1.673061 H         1 <1>         0.027445 
     71 H           0.596339    3.963972   -2.797613 H         1 <1>         0.027445 
     72 H           0.413933    5.307774   -1.645634 H         1 <1>         0.027445 
     73 H           2.515209    3.224227    0.729929 H         1 <1>         0.057470 
     74 H           2.591929    5.744504   -0.868249 H         1 <1>         0.034978 
     75 H           1.501259    5.891908    0.543387 H         1 <1>         0.034978 
     76 H           4.468931    4.913181    0.654997 H         1 <1>         0.057453 
     77 H           5.485100    7.488387    2.662931 H         1 <1>         0.027427 
     78 H           5.838907    5.763439    2.392790 H         1 <1>         0.027427 
     79 H           4.888867    6.256336    3.816443 H         1 <1>         0.027427 
     80 H           1.854678    6.701289    2.898852 H         1 <1>         0.027427 
     81 H           3.024646    8.004204    3.227673 H         1 <1>         0.027427 
     82 H           2.276978    7.893107    1.621787 H         1 <1>         0.027427 
@<TRIPOS>BOND
     1   12    1 1    
     2    1   33 1    
     3   18    2 1    
     4    2   34 1    
     5    4    3 1    
     6    3    5 1    
     7    9    3 1    
     8    3   35 1    
     9    6    4 1    
    10    4   10 1    
    11    4   36 1    
    12    5    8 1    
    13    5   14 1    
    14    5   19 1    
    15    7    6 1    
    16    6   16 1    
    17    6   20 1    
    18    7   11 1    
    19   13    7 1    
    20    7   37 1    
    21   12    8 1    
    22    8   15 1    
    23    8   38 1    
    24   11    9 1    
    25    9   22 1    
    26    9   39 1    
    27   10   12 1    
    28   10   40 1    
    29   10   41 1    
    30   11   42 1    
    31   11   43 1    
    32   12   44 1    
    33   13   18 1    
    34   13   23 1    
    35   13   24 1    
    36   14   17 1    
    37   14   45 1    
    38   14   46 1    
    39   15   17 1    
    40   15   25 1    
    41   15   47 1    
    42   16   21 1    
    43   16   48 1    
    44   16   49 1    
    45   17   50 1    
    46   17   51 1    
    47   18   21 1    
    48   18   52 1    
    49   19   53 1    
    50   19   54 1    
    51   19   55 1    
    52   20   56 1    
    53   20   57 1    
    54   20   58 1    
    55   21   59 1    
    56   21   60 1    
    57   22   61 1    
    58   22   62 1    
    59   22   63 1    
    60   23   64 1    
    61   23   65 1    
    62   23   66 1    
    63   24   67 1    
    64   24   68 1    
    65   24   69 1    
    66   25   26 1    
    67   25   27 2    
    68   26   70 1    
    69   26   71 1    
    70   26   72 1    
    71   27   28 1    
    72   27   73 1    
    73   28   29 1    
    74   28   74 1    
    75   28   75 1    
    76   29   30 2    
    77   29   76 1    
    78   30   31 1    
    79   30   32 1    
    80   31   77 1    
    81   31   78 1    
    82   31   79 1    
    83   32   80 1    
    84   32   81 1    
    85   32   82 1    
@<TRIPOS>SUBSTRUCTURE
     1 ****        3 TEMP              0 ****  ****    0 ROOT 
@<TRIPOS>NORMAL
@<TRIPOS>FF_PBC
FORCE_FIELD_SETUP_FEATURE Force Field Setup information
v1.0  0 0.000000 0.000000 0.000000 0.000000 0.000000 0.000000 NONE 0 0 0 0 1 0 0 0 0 0 0 0 0
