@<TRIPOS>MOLECULE
MOL002231
   60    62     1     1     0
SMALL
GASTEIGER


@<TRIPOS>ATOM
      1 C           0.146923   -1.222204    1.607407 C.ar      1 <1>         0.015863 
      2 C          -0.557575   -0.123716    2.174965 C.ar      1 <1>         0.085258 
      3 C          -1.663909   -0.371392    3.127267 C.ar      1 <1>        -0.000578 
      4 C          -2.029246   -1.677644    3.471009 C.ar      1 <1>         0.091050 
      5 C          -1.301206   -2.824110    2.878844 C.ar      1 <1>         0.000003 
      6 C          -0.243246   -2.604493    1.979693 C.ar      1 <1>         0.094282 
      7 C           1.294297   -0.983489    0.623965 C.3       1 <1>         0.006998 
      8 C           1.852844    0.449246    0.806611 C.3       1 <1>         0.102822 
      9 C           0.652093    1.426122    0.732646 C.3       1 <1>         0.117173 
     10 O          -0.221966    1.194280    1.852301 O.3       1 <1>        -0.333834 
     11 C          -0.044322    1.397076   -0.640054 C.ar      1 <1>        -0.013276 
     12 O           2.771091    0.772705   -0.259325 O.3       1 <1>        -0.308794 
     13 C           0.550500    2.077348   -1.738244 C.ar      1 <1>        -0.022770 
     14 C          -0.102427    2.089773   -3.068358 C.ar      1 <1>         0.116917 
     15 C          -1.326153    1.397461   -3.256017 C.ar      1 <1>         0.116596 
     16 C          -1.940665    0.676154   -2.119588 C.ar      1 <1>        -0.028165 
     17 C          -1.329787    0.682800   -0.857201 C.ar      1 <1>        -0.053400 
     18 C           4.034884    0.314150   -0.176957 C.2       1 <1>         0.259393 
     19 O           4.709755    0.321499   -1.193090 O.2       1 <1>        -0.265273 
     20 C           4.657065   -0.154804    1.120840 C.3       1 <1>         0.021444 
     21 O          -1.954824    1.394507   -4.501894 O.3       1 <1>        -0.275301 
     22 O           0.478873    2.778574   -4.134871 O.3       1 <1>        -0.275292 
     23 O           0.435958   -3.695249    1.440158 O.3       1 <1>        -0.277485 
     24 O          -3.080359   -1.890896    4.364189 O.3       1 <1>        -0.277762 
     25 H           1.024415    2.454426    0.868535 H         1 <1>         0.067789 
     26 H           2.269388    0.585683    1.818281 H         1 <1>         0.063488 
     27 C          -2.795496   -2.612271    5.453005 C.2       1 <1>         0.263998 
     28 C          -3.958748   -2.867536    6.370880 C.3       1 <1>         0.021811 
     29 O          -1.677154   -3.035351    5.701944 O.2       1 <1>        -0.264888 
     30 C           1.558141   -4.018296    2.089477 C.2       1 <1>         0.264006 
     31 C           2.269816   -5.232695    1.564239 C.3       1 <1>         0.021812 
     32 O           1.988143   -3.377740    3.036552 O.2       1 <1>        -0.264888 
     33 C          -2.411143    2.586025   -4.902099 C.2       1 <1>         0.264072 
     34 C          -3.007929    2.612908   -6.281221 C.3       1 <1>         0.021813 
     35 C           0.646016    4.091568   -3.945053 C.2       1 <1>         0.264072 
     36 C           1.226490    4.834742   -5.115177 C.3       1 <1>         0.021813 
     37 O           0.348467    4.663931   -2.908111 O.2       1 <1>        -0.264887 
     38 O          -2.347816    3.594451   -4.215877 O.2       1 <1>        -0.264887 
     39 H          -2.193882    0.468563    3.560303 H         1 <1>         0.066945 
     40 H          -1.580774   -3.838867    3.137232 H         1 <1>         0.066962 
     41 H           2.083418   -1.729692    0.771762 H         1 <1>         0.034098 
     42 H           0.901334   -1.112890   -0.395247 H         1 <1>         0.034098 
     43 H           1.492580    2.600224   -1.612398 H         1 <1>         0.064785 
     44 H          -2.873351    0.143758   -2.273670 H         1 <1>         0.064438 
     45 H          -1.812185    0.157912   -0.043422 H         1 <1>         0.062193 
     46 H           4.144930   -1.017954    1.564320 H         1 <1>         0.033023 
     47 H           4.671790    0.673972    1.844293 H         1 <1>         0.033023 
     48 H           5.700966   -0.451454    0.937034 H         1 <1>         0.033023 
     49 H          -3.661741   -3.524719    7.202051 H         1 <1>         0.033035 
     50 H          -4.322580   -1.914501    6.782041 H         1 <1>         0.033035 
     51 H          -4.771450   -3.350349    5.808411 H         1 <1>         0.033035 
     52 H           1.582254   -6.091484    1.568730 H         1 <1>         0.033035 
     53 H           3.142807   -5.470076    2.190540 H         1 <1>         0.033035 
     54 H           2.606107   -5.043865    0.534254 H         1 <1>         0.033035 
     55 H          -3.696593    1.765069   -6.410029 H         1 <1>         0.033035 
     56 H          -3.561045    3.550005   -6.444570 H         1 <1>         0.033035 
     57 H          -2.198951    2.539699   -7.022153 H         1 <1>         0.033035 
     58 H           2.180474    4.373577   -5.409602 H         1 <1>         0.033035 
     59 H           1.404277    5.888761   -4.854742 H         1 <1>         0.033035 
     60 H           0.524424    4.789072   -5.960507 H         1 <1>         0.033035 
@<TRIPOS>BOND
     1    1    2 2    
     2    1    6 1    
     3    1    7 1    
     4    2    3 1    
     5    2   10 1    
     6    3    4 2    
     7    3   39 1    
     8    4    5 1    
     9    4   24 1    
    10    5    6 2    
    11    5   40 1    
    12    6   23 1    
    13    7    8 1    
    14    7   41 1    
    15    7   42 1    
    16    8    9 1    
    17    8   12 1    
    18    8   26 1    
    19    9   10 1    
    20    9   11 1    
    21    9   25 1    
    22   11   13 2    
    23   11   17 1    
    24   12   18 1    
    25   13   14 1    
    26   13   43 1    
    27   14   15 2    
    28   14   22 1    
    29   15   16 1    
    30   15   21 1    
    31   16   17 2    
    32   16   44 1    
    33   17   45 1    
    34   18   19 2    
    35   18   20 1    
    36   20   46 1    
    37   20   47 1    
    38   20   48 1    
    39   21   33 1    
    40   22   35 1    
    41   23   30 1    
    42   24   27 1    
    43   27   28 1    
    44   27   29 2    
    45   28   49 1    
    46   28   50 1    
    47   28   51 1    
    48   30   31 1    
    49   30   32 2    
    50   31   52 1    
    51   31   53 1    
    52   31   54 1    
    53   33   34 1    
    54   33   38 2    
    55   34   55 1    
    56   34   56 1    
    57   34   57 1    
    58   35   36 1    
    59   35   37 2    
    60   36   58 1    
    61   36   59 1    
    62   36   60 1    
@<TRIPOS>SUBSTRUCTURE
     1 ****        1 TEMP              0 ****  ****    0 ROOT 
@<TRIPOS>NORMAL
@<TRIPOS>FF_PBC
FORCE_FIELD_SETUP_FEATURE Force Field Setup information
v1.0  0 0.000000 0.000000 0.000000 0.000000 0.000000 0.000000 NONE 0 0 0 0 1 0 0 0 0 0 0 0 0
