@<TRIPOS>MOLECULE
MOL002199
   37    36     1     1     0
SMALL
GASTEIGER


@<TRIPOS>ATOM
      1 C          -0.017143   -4.072918    1.844394 C.3       1 <1>        -0.060856 
      2 C           0.452304   -2.655017    2.280457 C.3       1 <1>        -0.024591 
      3 C           2.004550   -2.654631    2.408571 C.3       1 <1>        -0.060856 
      4 C          -0.020413   -1.532691    1.299555 C.3       1 <1>         0.066783 
      5 C           0.283848   -0.154652    1.872522 C.2       1 <1>         0.157270 
      6 C           0.215662    1.060228    0.976669 C.3       1 <1>         0.067463 
      7 C           0.615119    0.776521   -0.448067 C.2       1 <1>         0.157270 
      8 C          -0.345379    1.115979   -1.568179 C.3       1 <1>         0.066783 
      9 C          -0.377463    2.652422   -1.839599 C.3       1 <1>        -0.024591 
     10 C           1.053645    3.204254   -2.098452 C.3       1 <1>        -0.060856 
     11 C          -1.292120    2.984728   -3.052358 C.3       1 <1>        -0.060856 
     12 O           1.709231    0.288228   -0.684691 O.2       1 <1>        -0.295298 
     13 O           0.553261    0.003258    3.053273 O.2       1 <1>        -0.295298 
     14 N          -1.474547   -1.647685    1.023126 N.3       1 <1>        -0.321077 
     15 N          -1.687188    0.548776   -1.275453 N.3       1 <1>        -0.321077 
     16 H          -1.110981   -4.170761    1.916023 H         1 <1>         0.023292 
     17 H           0.294602   -4.279013    0.808953 H         1 <1>         0.023292 
     18 H           0.421052   -4.842447    2.498821 H         1 <1>         0.023292 
     19 H           0.013320   -2.460531    3.274621 H         1 <1>         0.031456 
     20 H           2.387323   -1.676640    2.734768 H         1 <1>         0.023292 
     21 H           2.329828   -3.403651    3.147261 H         1 <1>         0.023292 
     22 H           2.467637   -2.899693    1.440339 H         1 <1>         0.023292 
     23 H           0.534985   -1.677713    0.358728 H         1 <1>         0.053963 
     24 H          -0.790334    1.492112    1.060059 H         1 <1>         0.042004 
     25 H           0.926635    1.810427    1.354884 H         1 <1>         0.042004 
     26 H           0.059938    0.621718   -2.469181 H         1 <1>         0.053963 
     27 H          -0.778933    3.168081   -0.950155 H         1 <1>         0.031456 
     28 H           1.017108    4.284591   -2.308472 H         1 <1>         0.023292 
     29 H           1.702565    3.055092   -1.221897 H         1 <1>         0.023292 
     30 H           1.510337    2.697134   -2.962201 H         1 <1>         0.023292 
     31 H          -1.304142    4.070054   -3.238141 H         1 <1>         0.023292 
     32 H          -2.328523    2.664021   -2.869935 H         1 <1>         0.023292 
     33 H          -0.924403    2.480699   -3.959307 H         1 <1>         0.023292 
     34 H          -1.851881   -0.756183    0.544915 H         1 <1>         0.118859 
     35 H          -1.683052   -2.488270    0.375484 H         1 <1>         0.118859 
     36 H          -2.179427    0.214211   -2.180388 H         1 <1>         0.118859 
     37 H          -2.323411    1.267120   -0.775189 H         1 <1>         0.118859 
@<TRIPOS>BOND
     1    1    2 1    
     2    1   16 1    
     3    1   17 1    
     4    1   18 1    
     5    2    3 1    
     6    2    4 1    
     7    2   19 1    
     8    3   20 1    
     9    3   21 1    
    10    3   22 1    
    11    4    5 1    
    12    4   14 1    
    13    4   23 1    
    14    5    6 1    
    15    5   13 2    
    16    6    7 1    
    17    6   24 1    
    18    6   25 1    
    19    7    8 1    
    20    7   12 2    
    21    8    9 1    
    22    8   15 1    
    23    8   26 1    
    24    9   10 1    
    25    9   11 1    
    26    9   27 1    
    27   10   28 1    
    28   10   29 1    
    29   10   30 1    
    30   11   31 1    
    31   11   32 1    
    32   11   33 1    
    33   14   34 1    
    34   14   35 1    
    35   15   36 1    
    36   15   37 1    
@<TRIPOS>SUBSTRUCTURE
     1 ****        1 TEMP              0 ****  ****    0 ROOT 
@<TRIPOS>NORMAL
@<TRIPOS>FF_PBC
FORCE_FIELD_SETUP_FEATURE Force Field Setup information
v1.0  0 0.000000 0.000000 0.000000 0.000000 0.000000 0.000000 NONE 0 0 0 0 1 0 0 0 0 0 0 0 0
