@<TRIPOS>MOLECULE
MOL004607
   27    26     1     1     0
SMALL
GASTEIGER


@<TRIPOS>ATOM
      1 C           0.505049   -0.594531   -0.386145 C.3       1 <1>        -0.017812 
      2 C          -0.926329   -1.178588   -0.151902 C.3       1 <1>         0.057559 
      3 C           0.506013    0.958340   -0.550211 C.3       1 <1>        -0.048370 
      4 C           1.505695   -1.066706    0.707673 C.3       1 <1>        -0.060071 
      5 C          -1.545057   -0.800161    1.227621 C.3       1 <1>        -0.029449 
      6 O          -0.812748   -2.608140   -0.293479 O.3       1 <1>        -0.391531 
      7 C           1.852147    1.523576   -1.086294 C.3       1 <1>        -0.055589 
      8 C          -3.033797   -1.220102    1.371272 C.3       1 <1>        -0.062932 
      9 C           1.756793    3.049258   -1.353138 C.3       1 <1>        -0.065267 
     10 H           0.841223   -1.024392   -1.346517 H         1 <1>         0.032293 
     11 H          -1.582449   -0.798197   -0.955401 H         1 <1>         0.059564 
     12 H          -0.285778    1.240583   -1.263024 H         1 <1>         0.026856 
     13 H           0.290265    1.448765    0.411047 H         1 <1>         0.026856 
     14 H           2.545718   -0.888924    0.396823 H         1 <1>         0.023321 
     15 H           1.397856   -2.146820    0.890170 H         1 <1>         0.023321 
     16 H           1.332775   -0.532395    1.653572 H         1 <1>         0.023321 
     17 H          -1.504843    0.290495    1.367710 H         1 <1>         0.028745 
     18 H          -0.968868   -1.276044    2.036482 H         1 <1>         0.028745 
     19 H          -1.643138   -3.070800   -0.280662 H         1 <1>         0.209788 
     20 H           2.658509    1.356240   -0.354674 H         1 <1>         0.026274 
     21 H           2.123720    1.014290   -2.025879 H         1 <1>         0.026274 
     22 H          -3.438215   -0.841432    2.323768 H         1 <1>         0.023057 
     23 H          -3.148279   -2.314038    1.370910 H         1 <1>         0.023057 
     24 H          -3.634036   -0.799696    0.549409 H         1 <1>         0.023057 
     25 H           2.721273    3.430556   -1.724798 H         1 <1>         0.022978 
     26 H           0.984210    3.262637   -2.108313 H         1 <1>         0.022978 
     27 H           1.502390    3.586430   -0.426018 H         1 <1>         0.022978 
@<TRIPOS>BOND
     1    1    2 1    
     2    1    3 1    
     3    1    4 1    
     4    1   10 1    
     5    2    5 1    
     6    2    6 1    
     7    2   11 1    
     8    3    7 1    
     9    3   12 1    
    10    3   13 1    
    11    4   14 1    
    12    4   15 1    
    13    4   16 1    
    14    5    8 1    
    15    5   17 1    
    16    5   18 1    
    17    6   19 1    
    18    7    9 1    
    19    7   20 1    
    20    7   21 1    
    21    8   22 1    
    22    8   23 1    
    23    8   24 1    
    24    9   25 1    
    25    9   26 1    
    26    9   27 1    
@<TRIPOS>SUBSTRUCTURE
     1 ****        1 TEMP              0 ****  ****    0 ROOT 
@<TRIPOS>NORMAL
@<TRIPOS>FF_PBC
FORCE_FIELD_SETUP_FEATURE Force Field Setup information
v1.0  0 0.000000 0.000000 0.000000 0.000000 0.000000 0.000000 NONE 0 0 0 0 1 0 0 0 0 0 0 0 0
