@<TRIPOS>MOLECULE
MOL002921
   65    67     1     1     0
SMALL
GASTEIGER


@<TRIPOS>ATOM
      1 O           0.426273    2.227283    3.043763 O.3       1 <1>        -0.340053 
      2 O          -0.189869   -0.118449   -0.376452 O.3       1 <1>        -0.340533 
      3 O           0.554073    4.203272    4.231821 O.3       1 <1>        -0.343069 
      4 O           2.600156    1.505285    1.418750 O.3       1 <1>        -0.386478 
      5 O          -2.513432    0.167209   -0.309789 O.3       1 <1>        -0.348365 
      6 O          -2.240946    2.287345    1.571697 O.3       1 <1>        -0.384094 
      7 O          -2.208372    3.848421    5.110522 O.3       1 <1>        -0.384104 
      8 O          -1.612760    1.633511    6.743017 O.3       1 <1>        -0.386402 
      9 O           1.065447    2.327595    7.429211 O.3       1 <1>        -0.386579 
     10 O           2.067791   -1.038467   -1.952993 O.3       1 <1>        -0.392366 
     11 O          -9.002504    0.063050   -1.604037 O.3       1 <1>        -0.357263 
     12 O          -8.545041    2.848579   -1.155474 O.3       1 <1>        -0.345349 
     13 C           0.195458    1.926644    1.649719 C.3       1 <1>         0.120575 
     14 C           1.299259    0.907347    1.266143 C.3       1 <1>         0.112260 
     15 C          -1.199571    1.314061    1.356762 C.3       1 <1>         0.134475 
     16 C          -0.367348    3.304203    3.588767 C.3       1 <1>         0.188324 
     17 C           1.123440    0.447853   -0.203118 C.3       1 <1>         0.113015 
     18 C          -1.402627    2.763487    4.606385 C.3       1 <1>         0.134121 
     19 C          -0.647581    2.065060    5.763714 C.3       1 <1>         0.113972 
     20 C          -1.247349    0.820919   -0.111466 C.3       1 <1>         0.187921 
     21 C           0.366310    3.051682    6.395984 C.3       1 <1>         0.109478 
     22 C           1.317634    3.591482    5.290707 C.3       1 <1>         0.087307 
     23 C           2.182547   -0.623954   -0.578122 C.3       1 <1>         0.073015 
     24 C           2.280684    4.686955    5.815604 C.3       1 <1>        -0.036060 
     25 C          -2.664396   -0.394651   -1.629199 C.3       1 <1>         0.054726 
     26 C          -4.111999   -0.929353   -1.765470 C.3       1 <1>        -0.003966 
     27 C          -5.221005    0.125219   -1.603482 C.ar      1 <1>        -0.042604 
     28 C          -6.627082   -0.342121   -1.672196 C.ar      1 <1>        -0.026145 
     29 C          -4.977523    1.506508   -1.394139 C.ar      1 <1>        -0.055901 
     30 C          -7.695003    0.546794   -1.529615 C.ar      1 <1>         0.102695 
     31 C          -6.106071    2.456308   -1.237773 C.ar      1 <1>        -0.028898 
     32 C          -7.443307    1.991810   -1.301298 C.ar      1 <1>         0.105419 
     33 C          -8.385744    4.241915   -0.842179 C.3       1 <1>         0.043135 
     34 H           0.345832    2.830867    1.036267 H         1 <1>         0.065137 
     35 H           1.209434    0.024856    1.923810 H         1 <1>         0.064683 
     36 H          -1.343484    0.443909    2.020189 H         1 <1>         0.067105 
     37 H          -0.887734    3.918643    2.836050 H         1 <1>         0.093751 
     38 H           1.269308    1.311973   -0.873117 H         1 <1>         0.064668 
     39 H          -2.053778    2.025001    4.109847 H         1 <1>         0.067095 
     40 H          -0.100903    1.189622    5.370267 H         1 <1>         0.064757 
     41 H          -1.185475    1.694186   -0.783502 H         1 <1>         0.093740 
     42 H          -0.205345    3.889224    6.831210 H         1 <1>         0.064584 
     43 H           1.931855    2.761811    4.901412 H         1 <1>         0.062075 
     44 H           3.201476   -0.246904   -0.385846 H         1 <1>         0.058370 
     45 H           2.021583   -1.516928    0.045682 H         1 <1>         0.058370 
     46 H           2.865119    5.091149    4.974212 H         1 <1>         0.025536 
     47 H           1.708268    5.511062    6.267823 H         1 <1>         0.025536 
     48 H           2.985600    4.288052    6.559886 H         1 <1>         0.025536 
     49 H           2.739106    1.825723    2.306097 H         1 <1>         0.210004 
     50 H          -3.104399    1.928704    1.381564 H         1 <1>         0.210111 
     51 H          -2.827449    3.548821    5.770671 H         1 <1>         0.210110 
     52 H          -1.190942    1.226470    7.494865 H         1 <1>         0.210005 
     53 H           1.651910    2.868742    7.947023 H         1 <1>         0.210002 
     54 H          -2.475444    0.343686   -2.425664 H         1 <1>         0.056391 
     55 H          -1.957921   -1.231448   -1.761311 H         1 <1>         0.056391 
     56 H           2.206282   -0.329121   -2.572833 H         1 <1>         0.209508 
     57 H          -4.269596   -1.698254   -0.992279 H         1 <1>         0.033543 
     58 H          -4.234815   -1.400087   -2.754138 H         1 <1>         0.033543 
     59 H          -6.838399   -1.393428   -1.836643 H         1 <1>         0.064677 
     60 H          -3.971506    1.902125   -1.341801 H         1 <1>         0.062111 
     61 H          -5.874980    3.501062   -1.075026 H         1 <1>         0.064419 
     62 H          -9.633592    0.767219   -1.494676 H         1 <1>         0.217422 
     63 H          -9.390054    4.681092   -0.749085 H         1 <1>         0.052871 
     64 H          -7.859872    4.372541    0.116074 H         1 <1>         0.052871 
     65 H          -7.851236    4.771746   -1.645227 H         1 <1>         0.052871 
@<TRIPOS>BOND
     1   13    1 1    
     2    1   16 1    
     3    2   17 1    
     4   20    2 1    
     5   16    3 1    
     6    3   22 1    
     7   14    4 1    
     8    4   49 1    
     9    5   20 1    
    10   25    5 1    
    11   15    6 1    
    12    6   50 1    
    13   18    7 1    
    14    7   51 1    
    15   19    8 1    
    16    8   52 1    
    17   21    9 1    
    18    9   53 1    
    19   23   10 1    
    20   10   56 1    
    21   30   11 1    
    22   11   62 1    
    23   32   12 1    
    24   12   33 1    
    25   13   14 1    
    26   15   13 1    
    27   13   34 1    
    28   17   14 1    
    29   14   35 1    
    30   20   15 1    
    31   15   36 1    
    32   16   18 1    
    33   16   37 1    
    34   17   23 1    
    35   17   38 1    
    36   18   19 1    
    37   18   39 1    
    38   19   21 1    
    39   19   40 1    
    40   20   41 1    
    41   22   21 1    
    42   21   42 1    
    43   22   24 1    
    44   22   43 1    
    45   23   44 1    
    46   23   45 1    
    47   24   46 1    
    48   24   47 1    
    49   24   48 1    
    50   26   25 1    
    51   25   54 1    
    52   25   55 1    
    53   27   26 1    
    54   26   57 1    
    55   26   58 1    
    56   28   27 1    
    57   27   29 2    
    58   30   28 2    
    59   28   59 1    
    60   29   31 1    
    61   29   60 1    
    62   30   32 1    
    63   31   32 2    
    64   31   61 1    
    65   33   63 1    
    66   33   64 1    
    67   33   65 1    
@<TRIPOS>SUBSTRUCTURE
     1 ****        1 TEMP              0 ****  ****    0 ROOT 
@<TRIPOS>NORMAL
@<TRIPOS>FF_PBC
FORCE_FIELD_SETUP_FEATURE Force Field Setup information
v1.0  0 0.000000 0.000000 0.000000 0.000000 0.000000 0.000000 NONE 0 0 0 0 1 0 0 0 0 0 0 0 0
