@<TRIPOS>MOLECULE
MOL003367
   82    86     1     1     0
SMALL
GASTEIGER


@<TRIPOS>ATOM
      1 C          -3.617765   -0.110086   -2.129440 C.3       1 <1>        -0.044720 
      2 C          -2.919838    0.257681   -3.459590 C.3       1 <1>        -0.025831 
      3 C          -2.886097   -0.998236   -4.361884 C.3       1 <1>         0.060637 
      4 C          -2.026390   -2.145336   -3.725967 C.3       1 <1>        -0.005589 
      5 C          -2.441777   -2.387259   -2.207691 C.3       1 <1>        -0.027827 
      6 C          -2.840535   -1.173170   -1.277646 C.3       1 <1>        -0.024974 
      7 C          -1.493737   -3.352437   -1.423312 C.3       1 <1>        -0.048346 
      8 C          -0.251083   -2.694962   -0.739534 C.3       1 <1>        -0.043345 
      9 C          -0.554214   -1.469375    0.186695 C.3       1 <1>        -0.007214 
     10 C          -1.553509   -0.553298   -0.600043 C.3       1 <1>        -0.026225 
     11 C           0.751680   -0.712902    0.563765 C.2       1 <1>        -0.061073 
     12 C           0.801295    0.830271    0.537356 C.3       1 <1>        -0.007116 
     13 C          -0.605729    1.279571    1.033717 C.3       1 <1>        -0.043335 
     14 C          -1.767463    0.823495    0.106308 C.3       1 <1>        -0.048127 
     15 C           1.825453   -1.411102    0.977232 C.2       1 <1>        -0.083100 
     16 C           3.078299   -0.786044    1.526679 C.3       1 <1>        -0.026432 
     17 C           2.677931    0.426568    2.414547 C.3       1 <1>         0.000938 
     18 C           1.973027    1.421348    1.443523 C.3       1 <1>        -0.023426 
     19 C           3.970198    1.106620    2.981592 C.3       1 <1>        -0.044237 
     20 C           3.691948    2.467975    3.683304 C.3       1 <1>        -0.047269 
     21 C           2.919864    3.479075    2.782505 C.3       1 <1>        -0.034560 
     22 C           1.675177    2.782533    2.145340 C.3       1 <1>        -0.043652 
     23 C          -3.902085   -1.628677   -0.210998 C.3       1 <1>        -0.059009 
     24 O          -4.262792   -1.361830   -4.601266 O.3       1 <1>        -0.391248 
     25 C          -0.514568   -1.823181   -3.980964 C.3       1 <1>        -0.057190 
     26 C           2.416986    4.671248    3.656914 C.3       1 <1>        -0.059802 
     27 C           3.866763    4.087915    1.696823 C.3       1 <1>        -0.059802 
     28 C           1.074080    1.427125   -0.892911 C.3       1 <1>        -0.055552 
     29 C          -2.281345   -3.446067   -4.573130 C.3       1 <1>        -0.057190 
     30 C           1.749872   -0.064340    3.578422 C.3       1 <1>         0.050388 
     31 O           2.271348   -1.191339    4.306886 O.3       1 <1>        -0.394441 
     32 C          -1.125451   -2.005281    1.542607 C.3       1 <1>        -0.055553 
     33 H          -3.825202    0.803430   -1.556704 H         1 <1>         0.027149 
     34 H          -4.611859   -0.493210   -2.405038 H         1 <1>         0.027149 
     35 H          -3.517243    1.030637   -3.971417 H         1 <1>         0.029037 
     36 H          -1.920590    0.684105   -3.303153 H         1 <1>         0.029037 
     37 H          -2.463364   -0.687286   -5.334715 H         1 <1>         0.059852 
     38 H          -3.394124   -2.926285   -2.332208 H         1 <1>         0.031210 
     39 H          -1.127651   -4.151214   -2.082541 H         1 <1>         0.026855 
     40 H          -2.082244   -3.873094   -0.655079 H         1 <1>         0.026855 
     41 H           0.226861   -3.510081   -0.174009 H         1 <1>         0.027375 
     42 H           0.483778   -2.362033   -1.482823 H         1 <1>         0.027375 
     43 H          -0.958541   -0.356560   -1.481342 H         1 <1>         0.031445 
     44 H          -0.693916    2.373281    1.107751 H         1 <1>         0.027375 
     45 H          -0.760669    0.887577    2.048047 H         1 <1>         0.027375 
     46 H          -1.892003    1.602934   -0.665532 H         1 <1>         0.026864 
     47 H          -2.679378    0.835696    0.717992 H         1 <1>         0.026864 
     48 H           1.847385   -2.497186    0.980849 H         1 <1>         0.057216 
     49 H           3.626330   -1.511546    2.149440 H         1 <1>         0.031357 
     50 H           3.736765   -0.512452    0.686990 H         1 <1>         0.031357 
     51 H           2.794969    1.668789    0.757755 H         1 <1>         0.031543 
     52 H           4.480855    0.442057    3.693493 H         1 <1>         0.027166 
     53 H           4.691198    1.274186    2.167453 H         1 <1>         0.027166 
     54 H           4.652027    2.917331    3.986281 H         1 <1>         0.027061 
     55 H           3.128075    2.292990    4.610749 H         1 <1>         0.027061 
     56 H           1.258627    3.501853    1.425389 H         1 <1>         0.027353 
     57 H           0.918898    2.612025    2.924775 H         1 <1>         0.027353 
     58 H          -3.577142   -2.444216    0.429911 H         1 <1>         0.023525 
     59 H          -4.215289   -0.807356    0.443389 H         1 <1>         0.023525 
     60 H          -4.819476   -2.002693   -0.687975 H         1 <1>         0.023525 
     61 H          -4.401397   -1.997122   -5.295763 H         1 <1>         0.209800 
     62 H          -0.150398   -0.924872   -3.476120 H         1 <1>         0.023587 
     63 H          -0.332499   -1.664866   -5.054913 H         1 <1>         0.023587 
     64 H           0.128492   -2.667479   -3.698195 H         1 <1>         0.023587 
     65 H           1.888547    5.410104    3.035236 H         1 <1>         0.023499 
     66 H           3.258218    5.177803    4.153143 H         1 <1>         0.023499 
     67 H           1.722022    4.330103    4.438755 H         1 <1>         0.023499 
     68 H           4.659770    4.684428    2.172178 H         1 <1>         0.023499 
     69 H           3.306162    4.757629    1.027227 H         1 <1>         0.023499 
     70 H           4.361798    3.334172    1.073101 H         1 <1>         0.023499 
     71 H           1.955790    0.929331   -1.326815 H         1 <1>         0.023820 
     72 H           0.279881    1.371109   -1.637613 H         1 <1>         0.023820 
     73 H           1.286751    2.504651   -0.820923 H         1 <1>         0.023820 
     74 H          -2.154823   -3.236556   -5.647173 H         1 <1>         0.023587 
     75 H          -1.582521   -4.257255   -4.328046 H         1 <1>         0.023587 
     76 H          -3.293000   -3.855120   -4.436948 H         1 <1>         0.023587 
     77 H           0.805295   -0.436034    3.175445 H         1 <1>         0.056268 
     78 H           1.481540    0.730817    4.285961 H         1 <1>         0.056268 
     79 H           3.044423   -0.997885    4.825035 H         1 <1>         0.209419 
     80 H          -1.758774   -1.259013    2.040257 H         1 <1>         0.023820 
     81 H          -1.701485   -2.929887    1.442996 H         1 <1>         0.023820 
     82 H          -0.323155   -2.285525    2.238492 H         1 <1>         0.023820 
@<TRIPOS>BOND
     1    1    2 1    
     2    1    6 1    
     3    1   33 1    
     4    1   34 1    
     5    2    3 1    
     6    2   35 1    
     7    2   36 1    
     8    3    4 1    
     9    3   24 1    
    10    3   37 1    
    11    4    5 1    
    12    4   25 1    
    13    4   29 1    
    14    5    6 1    
    15    5    7 1    
    16    5   38 1    
    17    6   10 1    
    18    6   23 1    
    19    7    8 1    
    20    7   39 1    
    21    7   40 1    
    22    8    9 1    
    23    8   41 1    
    24    8   42 1    
    25    9   10 1    
    26    9   11 1    
    27    9   32 1    
    28   10   14 1    
    29   10   43 1    
    30   11   12 1    
    31   11   15 2    
    32   12   13 1    
    33   12   18 1    
    34   12   28 1    
    35   13   14 1    
    36   13   44 1    
    37   13   45 1    
    38   14   46 1    
    39   14   47 1    
    40   15   16 1    
    41   15   48 1    
    42   16   17 1    
    43   16   49 1    
    44   16   50 1    
    45   17   18 1    
    46   17   19 1    
    47   17   30 1    
    48   18   22 1    
    49   18   51 1    
    50   19   20 1    
    51   19   52 1    
    52   19   53 1    
    53   20   21 1    
    54   20   54 1    
    55   20   55 1    
    56   21   22 1    
    57   21   26 1    
    58   21   27 1    
    59   22   56 1    
    60   22   57 1    
    61   23   58 1    
    62   23   59 1    
    63   23   60 1    
    64   24   61 1    
    65   25   62 1    
    66   25   63 1    
    67   25   64 1    
    68   26   65 1    
    69   26   66 1    
    70   26   67 1    
    71   27   68 1    
    72   27   69 1    
    73   27   70 1    
    74   28   71 1    
    75   28   72 1    
    76   28   73 1    
    77   29   74 1    
    78   29   75 1    
    79   29   76 1    
    80   30   31 1    
    81   30   77 1    
    82   30   78 1    
    83   31   79 1    
    84   32   80 1    
    85   32   81 1    
    86   32   82 1    
@<TRIPOS>SUBSTRUCTURE
     1 ****        1 TEMP              0 ****  ****    0 ROOT 
@<TRIPOS>NORMAL
@<TRIPOS>FF_PBC
FORCE_FIELD_SETUP_FEATURE Force Field Setup information
v1.0  0 0.000000 0.000000 0.000000 0.000000 0.000000 0.000000 NONE 0 0 0 0 1 0 0 0 0 0 0 0 0
