@<TRIPOS>MOLECULE
MOL003050
   29    28     1     1     0
SMALL
GASTEIGER


@<TRIPOS>ATOM
      1 C          -1.238154   -0.435435   -0.000125 C.3       1 <1>        -0.052596 
      2 C           0.088839    0.372133    0.000097 C.3       1 <1>        -0.053045 
      3 C          -2.473555    0.506308    0.000065 C.3       1 <1>        -0.044061 
      4 C           1.324851   -0.568883   -0.000114 C.3       1 <1>        -0.053065 
      5 C          -3.801565   -0.298570   -0.000142 C.3       1 <1>         0.033006 
      6 C           2.651620    0.239079    0.000119 C.3       1 <1>        -0.053306 
      7 C          -5.017115    0.592253    0.000047 C.2       1 <1>         0.259588 
      8 C           3.887930   -0.701055   -0.000119 C.3       1 <1>        -0.055911 
      9 O          -6.189451   -0.045571   -0.000118 O.3       1 <1>        -0.331267 
     10 O          -4.936497    1.810868    0.000352 O.2       1 <1>        -0.265177 
     11 C           5.211177    0.107973    0.000115 C.3       1 <1>        -0.065276 
     12 H          -1.271556   -1.080405   -0.893659 H         1 <1>         0.026540 
     13 H          -1.271599   -1.080816    0.893104 H         1 <1>         0.026540 
     14 H           0.122656    1.017260    0.893508 H         1 <1>         0.026529 
     15 H           0.122691    1.017687   -0.892993 H         1 <1>         0.026529 
     16 H          -2.443017    1.151257    0.893969 H         1 <1>         0.027004 
     17 H          -2.442983    1.151658   -0.893552 H         1 <1>         0.027004 
     18 H           1.291758   -1.213933   -0.893596 H         1 <1>         0.026528 
     19 H           1.291718   -1.214380    0.893060 H         1 <1>         0.026528 
     20 H          -3.848101   -0.940149   -0.893950 H         1 <1>         0.036600 
     21 H          -3.848123   -0.940570    0.893358 H         1 <1>         0.036600 
     22 H           2.685865    0.884019    0.893656 H         1 <1>         0.026520 
     23 H           2.685886    0.884488   -0.893050 H         1 <1>         0.026520 
     24 H           3.860825   -1.346780   -0.893752 H         1 <1>         0.026265 
     25 H           3.860805   -1.347264    0.893179 H         1 <1>         0.026265 
     26 H          -6.921324    0.561921    0.000014 H         1 <1>         0.220208 
     27 H           6.074230   -0.576512   -0.000064 H         1 <1>         0.022978 
     28 H           5.271137    0.746465    0.895268 H         1 <1>         0.022978 
     29 H           5.271149    0.746953   -0.894677 H         1 <1>         0.022978 
@<TRIPOS>BOND
     1    1    2 1    
     2    1    3 1    
     3    1   12 1    
     4    1   13 1    
     5    2    4 1    
     6    2   14 1    
     7    2   15 1    
     8    3    5 1    
     9    3   16 1    
    10    3   17 1    
    11    4    6 1    
    12    4   18 1    
    13    4   19 1    
    14    5    7 1    
    15    5   20 1    
    16    5   21 1    
    17    6    8 1    
    18    6   22 1    
    19    6   23 1    
    20    7    9 1    
    21    7   10 2    
    22    8   11 1    
    23    8   24 1    
    24    8   25 1    
    25    9   26 1    
    26   11   27 1    
    27   11   28 1    
    28   11   29 1    
@<TRIPOS>SUBSTRUCTURE
     1 ****        1 TEMP              0 ****  ****    0 ROOT 
@<TRIPOS>NORMAL
@<TRIPOS>FF_PBC
FORCE_FIELD_SETUP_FEATURE Force Field Setup information
v1.0  0 0.000000 0.000000 0.000000 0.000000 0.000000 0.000000 NONE 0 0 0 0 1 0 0 0 0 0 0 0 0
