@<TRIPOS>MOLECULE
MOL004966
   48    51     1     1     0
SMALL
GASTEIGER


@<TRIPOS>ATOM
      1 O           0.232211    1.827652   -0.665676 O.3       1 <1>        -0.343144 
      2 O          -4.200591    0.029485   -1.524960 O.3       1 <1>        -0.334125 
      3 O           5.044813    1.061438   -0.557094 O.3       1 <1>        -0.356976 
      4 O           4.045077   -1.667062    3.378338 O.3       1 <1>        -0.345262 
      5 C           2.295411    0.907808   -1.575360 C.3       1 <1>         0.014618 
      6 C           1.471875    0.004810   -2.530227 C.3       1 <1>        -0.016186 
      7 C          -0.036902    0.067931   -2.265092 C.ar      1 <1>        -0.016010 
      8 C           1.483604    2.187183   -1.267635 C.3       1 <1>         0.061424 
      9 C          -0.572202    0.936191   -1.380746 C.ar      1 <1>         0.088953 
     10 C          -2.035884    0.925155   -1.139972 C.ar      1 <1>         0.035007 
     11 C           2.718078    0.204150   -0.269028 C.ar      1 <1>        -0.009385 
     12 C          -4.571305    0.322237   -0.162778 C.3       1 <1>         0.088837 
     13 C          -2.828313    0.053124   -1.787052 C.ar      1 <1>         0.086883 
     14 C          -0.921099   -0.863995   -3.008681 C.ar      1 <1>        -0.053632 
     15 C          -2.670613    1.884232   -0.162022 C.2       1 <1>        -0.050887 
     16 C          -2.246902   -0.876816   -2.783437 C.ar      1 <1>        -0.030640 
     17 C          -3.895208    1.595707    0.291065 C.2       1 <1>        -0.051917 
     18 C           4.124703    0.323032    0.194497 C.ar      1 <1>         0.108330 
     19 C           1.816519   -0.550640    0.501615 C.ar      1 <1>        -0.053179 
     20 C          -6.114021    0.457882   -0.123584 C.3       1 <1>        -0.031936 
     21 C          -4.118015   -0.832585    0.768821 C.3       1 <1>        -0.031936 
     22 C           4.537798   -0.299418    1.380678 C.ar      1 <1>         0.132948 
     23 C           2.249014   -1.205946    1.759539 C.ar      1 <1>        -0.028723 
     24 C           3.577945   -1.082079    2.194735 C.ar      1 <1>         0.107982 
     25 C           3.146436   -2.227960    4.345620 C.3       1 <1>         0.043137 
     26 O           5.868180   -0.174888    1.790677 O.3       1 <1>        -0.355383 
     27 H           5.913507    1.057995   -0.164558 H         1 <1>         0.217433 
     28 H           3.214342    1.202224   -2.108302 H         1 <1>         0.037527 
     29 H           1.599633    0.353833   -3.566063 H         1 <1>         0.032055 
     30 H           1.827331   -1.035603   -2.470358 H         1 <1>         0.032055 
     31 H           2.038841    2.843956   -0.578557 H         1 <1>         0.057101 
     32 H           1.287970    2.748506   -2.195491 H         1 <1>         0.057101 
     33 H          -0.485694   -1.539367   -3.739004 H         1 <1>         0.062188 
     34 H          -2.127647    2.774615    0.156040 H         1 <1>         0.062283 
     35 H          -2.896054   -1.558345   -3.325814 H         1 <1>         0.064357 
     36 H          -4.386678    2.264607    0.996346 H         1 <1>         0.060053 
     37 H           0.787229   -0.667076    0.192150 H         1 <1>         0.062199 
     38 H          -6.586575   -0.462991   -0.497059 H         1 <1>         0.026052 
     39 H          -6.432837    1.294632   -0.761717 H         1 <1>         0.026052 
     40 H          -6.462121    0.639393    0.903924 H         1 <1>         0.026052 
     41 H          -4.602942   -1.773617    0.473613 H         1 <1>         0.026052 
     42 H          -3.029299   -0.977109    0.719589 H         1 <1>         0.026052 
     43 H          -4.388222   -0.609526    1.811020 H         1 <1>         0.026052 
     44 H           1.519530   -1.772794    2.323397 H         1 <1>         0.064422 
     45 H           3.743487   -2.557670    5.208499 H         1 <1>         0.052871 
     46 H           2.420739   -1.472737    4.686541 H         1 <1>         0.052871 
     47 H           2.623690   -3.104491    3.934248 H         1 <1>         0.052871 
     48 H           6.021060   -0.655368    2.599220 H         1 <1>         0.217502 
@<TRIPOS>BOND
     1    8    1 1    
     2    1    9 1    
     3    2   12 1    
     4   13    2 1    
     5   18    3 1    
     6    3   27 1    
     7   24    4 1    
     8    4   25 1    
     9    5    6 1    
    10    5    8 1    
    11   11    5 1    
    12    5   28 1    
    13    6    7 1    
    14    6   29 1    
    15    6   30 1    
    16    7    9 2    
    17    7   14 1    
    18    8   31 1    
    19    8   32 1    
    20    9   10 1    
    21   10   13 2    
    22   10   15 1    
    23   18   11 1    
    24   11   19 2    
    25   17   12 1    
    26   12   20 1    
    27   12   21 1    
    28   16   13 1    
    29   14   16 2    
    30   14   33 1    
    31   15   17 2    
    32   15   34 1    
    33   16   35 1    
    34   17   36 1    
    35   22   18 2    
    36   19   23 1    
    37   19   37 1    
    38   20   38 1    
    39   20   39 1    
    40   20   40 1    
    41   21   41 1    
    42   21   42 1    
    43   21   43 1    
    44   22   24 1    
    45   22   26 1    
    46   23   24 2    
    47   23   44 1    
    48   25   45 1    
    49   25   46 1    
    50   25   47 1    
    51   26   48 1    
@<TRIPOS>SUBSTRUCTURE
     1 ****        5 TEMP              0 ****  ****    0 ROOT 
@<TRIPOS>NORMAL
@<TRIPOS>FF_PBC
FORCE_FIELD_SETUP_FEATURE Force Field Setup information
v1.0  0 0.000000 0.000000 0.000000 0.000000 0.000000 0.000000 NONE 0 0 0 0 1 0 0 0 0 0 0 0 0
