@<TRIPOS>MOLECULE
MOL002149
   37    38     1     1     0
SMALL
GASTEIGER


@<TRIPOS>ATOM
      1 C          -1.226791   -0.023842    0.842743 C.3       1 <1>        -0.028301 
      2 C          -2.425155   -0.880617    1.337653 C.3       1 <1>        -0.020381 
      3 C          -2.684659   -2.066586    0.373469 C.3       1 <1>         0.085577 
      4 C          -1.463740   -3.030930    0.393786 C.3       1 <1>         0.109148 
      5 C          -0.203053   -2.225191    0.238844 C.2       1 <1>         0.025246 
      6 C          -0.083973   -0.912479    0.425755 C.2       1 <1>        -0.056860 
      7 C           1.107802   -2.729424   -0.138452 C.2       1 <1>         0.162300 
      8 C           2.112361   -1.623162   -0.245786 C.3       1 <1>         0.016835 
      9 C           1.307435   -0.352825    0.194781 C.3       1 <1>        -0.009846 
     10 O          -3.899373   -2.727030    0.775580 O.3       1 <1>        -0.388884 
     11 O          -1.403207   -3.744802    1.642321 O.3       1 <1>        -0.384501 
     12 O           1.350741   -3.907848   -0.342132 O.2       1 <1>        -0.292286 
     13 C           1.382359    0.777299   -0.877869 C.3       1 <1>        -0.019918 
     14 C           1.153775    2.208465   -0.310333 C.3       1 <1>         0.055558 
     15 C           1.176277    3.258849   -1.459406 C.3       1 <1>        -0.029681 
     16 C           0.867513    4.703452   -0.983785 C.3       1 <1>        -0.062940 
     17 O           2.206662    2.443445    0.642902 O.3       1 <1>        -0.391776 
     18 H          -1.542370    0.566444   -0.032160 H         1 <1>         0.031109 
     19 H          -0.915750    0.656479    1.652106 H         1 <1>         0.031109 
     20 H          -2.211793   -1.287893    2.339698 H         1 <1>         0.029402 
     21 H          -3.328238   -0.251751    1.411090 H         1 <1>         0.029402 
     22 H          -2.816163   -1.657640   -0.644737 H         1 <1>         0.062248 
     23 H          -1.558074   -3.746957   -0.440693 H         1 <1>         0.067053 
     24 H           2.459031   -1.587686   -1.289663 H         1 <1>         0.035080 
     25 H           2.970702   -1.823884    0.414584 H         1 <1>         0.035080 
     26 H           1.701597    0.009137    1.158911 H         1 <1>         0.035074 
     27 H          -4.114889   -3.474268    0.227653 H         1 <1>         0.209902 
     28 H          -0.668173   -4.349479    1.684726 H         1 <1>         0.210345 
     29 H           0.670288    0.548820   -1.687366 H         1 <1>         0.029587 
     30 H           2.396641    0.795746   -1.308696 H         1 <1>         0.029587 
     31 H           0.175812    2.263031    0.191624 H         1 <1>         0.059315 
     32 H           2.161244    3.244776   -1.952252 H         1 <1>         0.028736 
     33 H           0.414903    2.980106   -2.206256 H         1 <1>         0.028736 
     34 H           0.781966    5.374113   -1.852778 H         1 <1>         0.023056 
     35 H          -0.082678    4.732373   -0.429544 H         1 <1>         0.023056 
     36 H           1.666651    5.093437   -0.337394 H         1 <1>         0.023056 
     37 H           2.129730    3.267633    1.110965 H         1 <1>         0.209776 
@<TRIPOS>BOND
     1    1    2 1    
     2    1    6 1    
     3    1   18 1    
     4    1   19 1    
     5    2    3 1    
     6    2   20 1    
     7    2   21 1    
     8    3    4 1    
     9    3   10 1    
    10    3   22 1    
    11    4    5 1    
    12    4   11 1    
    13    4   23 1    
    14    5    6 2    
    15    5    7 1    
    16    6    9 1    
    17    7    8 1    
    18    7   12 2    
    19    8    9 1    
    20    8   24 1    
    21    8   25 1    
    22    9   13 1    
    23    9   26 1    
    24   10   27 1    
    25   11   28 1    
    26   13   14 1    
    27   13   29 1    
    28   13   30 1    
    29   14   15 1    
    30   14   17 1    
    31   14   31 1    
    32   15   16 1    
    33   15   32 1    
    34   15   33 1    
    35   16   34 1    
    36   16   35 1    
    37   16   36 1    
    38   17   37 1    
@<TRIPOS>SUBSTRUCTURE
     1 ****        1 TEMP              0 ****  ****    0 ROOT 
@<TRIPOS>NORMAL
@<TRIPOS>FF_PBC
FORCE_FIELD_SETUP_FEATURE Force Field Setup information
v1.0  0 0.000000 0.000000 0.000000 0.000000 0.000000 0.000000 NONE 0 0 0 0 1 0 0 0 0 0 0 0 0
