@<TRIPOS>MOLECULE
MOL002099
   31    32     1     1     0
SMALL
GASTEIGER


@<TRIPOS>ATOM
      1 C          -0.429289    1.254277    1.124719 C.3       1 <1>         0.083046 
      2 C          -1.739340    1.975812    1.569556 C.3       1 <1>        -0.004330 
      3 C          -2.525906    1.286534    2.666209 C.2       1 <1>        -0.080522 
      4 C          -2.413347   -0.026030    2.904116 C.2       1 <1>        -0.052586 
      5 C          -1.462437   -0.793825    2.094388 C.2       1 <1>         0.050337 
      6 C          -0.567388   -0.234787    1.293547 C.2       1 <1>         0.000688 
      7 C          -1.187549   -2.212627    1.919117 C.2       1 <1>         0.294479 
      8 O          -0.203046   -2.502671    1.069125 O.3       1 <1>        -0.303594 
      9 C           0.328743   -1.237400    0.600453 C.3       1 <1>         0.092779 
     10 O           0.693417    1.693169    1.905789 O.3       1 <1>        -0.387080 
     11 H          -0.229562    1.519785    0.075905 H         1 <1>         0.064436 
     12 O          -1.815186   -3.079063    2.504402 O.2       1 <1>        -0.259205 
     13 C           0.292030   -1.207186   -0.952346 C.3       1 <1>        -0.022019 
     14 C           1.485270   -0.423940   -1.570530 C.3       1 <1>        -0.050639 
     15 C           1.375793   -0.362345   -3.118517 C.3       1 <1>        -0.055821 
     16 C           2.572081    0.405547   -3.738982 C.3       1 <1>        -0.065275 
     17 H           1.357079   -1.143967    0.985586 H         1 <1>         0.065031 
     18 H          -1.487425    3.004558    1.873130 H         1 <1>         0.033561 
     19 H          -2.429844    2.037283    0.712613 H         1 <1>         0.033561 
     20 H          -3.222219    1.876787    3.264643 H         1 <1>         0.057315 
     21 H          -3.000594   -0.529889    3.672343 H         1 <1>         0.062218 
     22 H           0.581305    1.521768    2.835889 H         1 <1>         0.210232 
     23 H          -0.672194   -0.792936   -1.287297 H         1 <1>         0.029353 
     24 H           0.356680   -2.244661   -1.319799 H         1 <1>         0.029353 
     25 H           2.427980   -0.926756   -1.297008 H         1 <1>         0.026610 
     26 H           1.525248    0.600720   -1.173172 H         1 <1>         0.026610 
     27 H           0.437911    0.144021   -3.401872 H         1 <1>         0.026266 
     28 H           1.352979   -1.385657   -3.529271 H         1 <1>         0.026266 
     29 H           2.474914    0.436328   -4.835810 H         1 <1>         0.022978 
     30 H           3.521285   -0.091998   -3.485671 H         1 <1>         0.022978 
     31 H           2.603014    1.439551   -3.361354 H         1 <1>         0.022978 
@<TRIPOS>BOND
     1    1    2 1    
     2    1    6 1    
     3    1   10 1    
     4    1   11 1    
     5    2    3 1    
     6    2   18 1    
     7    2   19 1    
     8    3    4 2    
     9    3   20 1    
    10    4    5 1    
    11    4   21 1    
    12    5    6 2    
    13    5    7 1    
    14    6    9 1    
    15    7    8 1    
    16    7   12 2    
    17    8    9 1    
    18    9   13 1    
    19    9   17 1    
    20   10   22 1    
    21   13   14 1    
    22   13   23 1    
    23   13   24 1    
    24   14   15 1    
    25   14   25 1    
    26   14   26 1    
    27   15   16 1    
    28   15   27 1    
    29   15   28 1    
    30   16   29 1    
    31   16   30 1    
    32   16   31 1    
@<TRIPOS>SUBSTRUCTURE
     1 ****        1 TEMP              0 ****  ****    0 ROOT 
@<TRIPOS>NORMAL
@<TRIPOS>FF_PBC
FORCE_FIELD_SETUP_FEATURE Force Field Setup information
v1.0  0 0.000000 0.000000 0.000000 0.000000 0.000000 0.000000 NONE 0 0 0 0 1 0 0 0 0 0 0 0 0
