@<TRIPOS>MOLECULE
MOL001668
   48    50     1     1     0
SMALL
GASTEIGER


@<TRIPOS>ATOM
      1 O          -0.217983    0.550323   -1.029952 O.3       1 <1>        -0.319115 
      2 O          -1.660229   -0.179151    0.597181 O.3       1 <1>        -0.340431 
      3 O           1.373074    1.775859    0.114607 O.3       1 <1>        -0.321655 
      4 O          -2.277647    2.359771   -2.085408 O.3       1 <1>        -0.384103 
      5 O          -4.962324    1.620554   -1.282492 O.3       1 <1>        -0.386401 
      6 O          -5.258621    0.421029    1.356961 O.3       1 <1>        -0.386488 
      7 O           1.226552   -1.927773   -3.544821 O.3       1 <1>        -0.390724 
      8 O          -1.841048   -1.466880    3.117194 O.3       1 <1>        -0.392366 
      9 O           5.859709    0.291658    0.946598 O.3       1 <1>        -0.327672 
     10 O           5.119156    2.213974    1.767950 O.2       1 <1>        -0.259701 
     11 C           2.057131   -0.241868   -1.128413 C.3       1 <1>         0.041105 
     12 C           3.389923   -0.245204   -0.345314 C.3       1 <1>         0.006324 
     13 C           0.987357    0.439701   -0.254063 C.3       1 <1>         0.174328 
     14 C           3.389522   -1.548450    0.500194 C.3       1 <1>        -0.026630 
     15 C           1.794725   -1.720418   -1.208659 C.2       1 <1>        -0.039915 
     16 C          -1.355978    0.947655   -0.248699 C.3       1 <1>         0.190802 
     17 C          -2.537895    1.243520   -1.208636 C.3       1 <1>         0.134212 
     18 C          -3.838466    1.474453   -0.393756 C.3       1 <1>         0.114063 
     19 C           2.503318   -2.430507   -0.329925 C.2       1 <1>        -0.081574 
     20 C           3.578885    1.001693    0.482040 C.2       1 <1>         0.050600 
     21 C          -4.077644    0.263565    0.546616 C.3       1 <1>         0.111896 
     22 C          -2.822453    0.018234    1.426195 C.3       1 <1>         0.113007 
     23 C           0.800844   -2.251350   -2.211096 C.3       1 <1>         0.065735 
     24 C           2.603577    1.912682    0.639518 C.2       1 <1>         0.052275 
     25 C          -3.000914   -1.255854    2.292695 C.3       1 <1>         0.073015 
     26 C           4.902107    1.208765    1.107666 C.2       1 <1>         0.289411 
     27 H           2.143380    0.257087   -2.107633 H         1 <1>         0.040171 
     28 H           4.207178   -0.314437   -1.085453 H         1 <1>         0.036163 
     29 H           0.829194   -0.161169    0.659164 H         1 <1>         0.092073 
     30 H           2.930290   -1.401182    1.490022 H         1 <1>         0.031347 
     31 H           4.401161   -1.967678    0.623244 H         1 <1>         0.031347 
     32 H          -1.133321    1.853858    0.339693 H         1 <1>         0.093840 
     33 H          -2.679416    0.358558   -1.849205 H         1 <1>         0.067096 
     34 H          -3.731678    2.385441    0.220322 H         1 <1>         0.064758 
     35 H           2.447252   -3.513454   -0.216766 H         1 <1>         0.057263 
     36 H          -4.243444   -0.623132   -0.086806 H         1 <1>         0.064673 
     37 H          -2.659908    0.868944    2.109125 H         1 <1>         0.064668 
     38 H          -0.181907   -1.787572   -2.035453 H         1 <1>         0.060399 
     39 H           0.683762   -3.343014   -2.102445 H         1 <1>         0.060399 
     40 H           2.779157    2.831612    1.199096 H         1 <1>         0.089058 
     41 H          -3.164979   -2.133779    1.644855 H         1 <1>         0.058370 
     42 H          -3.872682   -1.148735    2.956999 H         1 <1>         0.058370 
     43 H          -2.098492    3.172948   -1.625040 H         1 <1>         0.210110 
     44 H          -4.846829    2.337918   -1.899220 H         1 <1>         0.210005 
     45 H          -5.236792    1.189048    1.918067 H         1 <1>         0.210004 
     46 H           2.073186   -2.307580   -3.758489 H         1 <1>         0.209834 
     47 H          -1.048855   -1.557824    2.595010 H         1 <1>         0.209508 
     48 H           6.669964    0.527560    1.385130 H         1 <1>         0.220546 
@<TRIPOS>BOND
     1    1   13 1    
     2   16    1 1    
     3    2   16 1    
     4   22    2 1    
     5   13    3 1    
     6    3   24 1    
     7   17    4 1    
     8    4   43 1    
     9   18    5 1    
    10    5   44 1    
    11   21    6 1    
    12    6   45 1    
    13   23    7 1    
    14    7   46 1    
    15   25    8 1    
    16    8   47 1    
    17   26    9 1    
    18    9   48 1    
    19   26   10 2    
    20   11   12 1    
    21   13   11 1    
    22   11   15 1    
    23   11   27 1    
    24   12   14 1    
    25   12   20 1    
    26   12   28 1    
    27   13   29 1    
    28   19   14 1    
    29   14   30 1    
    30   14   31 1    
    31   15   19 2    
    32   15   23 1    
    33   16   17 1    
    34   16   32 1    
    35   18   17 1    
    36   17   33 1    
    37   21   18 1    
    38   18   34 1    
    39   19   35 1    
    40   24   20 2    
    41   20   26 1    
    42   22   21 1    
    43   21   36 1    
    44   22   25 1    
    45   22   37 1    
    46   23   38 1    
    47   23   39 1    
    48   24   40 1    
    49   25   41 1    
    50   25   42 1    
@<TRIPOS>SUBSTRUCTURE
     1 ****       11 TEMP              0 ****  ****    0 ROOT 
@<TRIPOS>NORMAL
@<TRIPOS>FF_PBC
FORCE_FIELD_SETUP_FEATURE Force Field Setup information
v1.0  0 0.000000 0.000000 0.000000 0.000000 0.000000 0.000000 NONE 0 0 0 0 1 0 0 0 0 0 0 0 0
