@<TRIPOS>MOLECULE
MOL001454
   43    47     1     1     0
SMALL
GASTEIGER


@<TRIPOS>ATOM
      1 O           5.489872   -3.034453   -0.288097 O.3       1 <1>        -0.315042 
      2 O           3.826867   -4.133145    0.484542 O.3       1 <1>        -0.315030 
      3 O          -2.665222    2.990384    0.624030 O.3       1 <1>        -0.344536 
      4 O          -4.842981    1.751451    0.344373 O.3       1 <1>        -0.345319 
      5 N           0.787398    0.853661    0.300565 N.ar      1 <1>        -0.196151 
      6 C           1.812702    1.464800    0.408740 C.3       1 <1>         0.155046 
      7 C           2.934170    1.104817   -0.620683 C.3       1 <1>         0.032989 
      8 C           0.807874   -0.334418    0.135920 C.ar      1 <1>         0.215834 
      9 C           3.251921   -0.365989   -0.387190 C.ar      1 <1>        -0.025365 
     10 C           2.073220   -1.131456    0.097734 C.ar      1 <1>         0.052204 
     11 C          -0.321334    1.441242    0.400260 C.ar      1 <1>         0.182044 
     12 C          -0.475070   -1.070923   -0.070897 C.ar      1 <1>         0.018304 
     13 C          -1.331476    0.929343    0.270156 C.ar      1 <1>         0.078193 
     14 C          -1.387627   -0.521930   -0.006755 C.ar      1 <1>        -0.003343 
     15 C           4.232191   -0.860766   -0.523004 C.ar      1 <1>        -0.024879 
     16 C           2.211142   -2.199190    0.389655 C.ar      1 <1>        -0.015339 
     17 C           4.330568   -2.301765   -0.160773 C.ar      1 <1>         0.109329 
     18 C           3.555275   -2.813781    0.196955 C.ar      1 <1>         0.109811 
     19 C          -2.649781    1.613632    0.362117 C.ar      1 <1>         0.118986 
     20 C          -2.750070   -1.092144   -0.172340 C.ar      1 <1>        -0.051030 
     21 C          -3.638729    1.036697    0.224937 C.ar      1 <1>         0.106467 
     22 C           5.275304   -4.280255    0.435231 C.3       1 <1>         0.160031 
     23 C          -3.674229   -0.431248   -0.068753 C.ar      1 <1>        -0.028547 
     24 C          -2.877297    3.832285   -0.523918 C.3       1 <1>         0.043164 
     25 C          -6.039244    1.361631   -0.350563 C.3       1 <1>         0.043136 
     26 H           1.780145    2.566200    0.266734 H         1 <1>         0.103387 
     27 H           2.219706    1.320337    1.430072 H         1 <1>         0.103387 
     28 H           2.577166    1.239034   -1.655343 H         1 <1>         0.037507 
     29 H           3.832990    1.729052   -0.467833 H         1 <1>         0.037507 
     30 H          -0.371814    2.507876    0.635354 H         1 <1>         0.138361 
     31 H          -0.471119   -2.133874   -0.293082 H         1 <1>         0.068959 
     32 H           5.109945   -0.338360   -0.891236 H         1 <1>         0.064709 
     33 H           1.422995   -2.817163    0.804070 H         1 <1>         0.065223 
     34 H          -2.852400   -2.156796   -0.391843 H         1 <1>         0.062448 
     35 H           4.870872   -5.277266    0.199100 H         1 <1>         0.087950 
     36 H           6.024835   -4.512790   -0.337826 H         1 <1>         0.087950 
     37 H          -4.650417   -0.892668   -0.188295 H         1 <1>         0.064429 
     38 H          -2.850254    4.879624   -0.188783 H         1 <1>         0.052871 
     39 H          -3.854310    3.643567   -0.994588 H         1 <1>         0.052871 
     40 H          -2.082881    3.680106   -1.270689 H         1 <1>         0.052871 
     41 H          -6.759835    2.186768   -0.250871 H         1 <1>         0.052871 
     42 H          -6.497627    0.463166    0.087749 H         1 <1>         0.052871 
     43 H          -5.835810    1.201334   -1.420585 H         1 <1>         0.052871 
@<TRIPOS>BOND
     1   17    1 1    
     2    1   22 1    
     3   18    2 1    
     4    2   22 1    
     5   19    3 1    
     6    3   24 1    
     7   21    4 1    
     8    4   25 1    
     9    5    6 1    
    10    5    8 2    
    11   11    5 1    
    12    6    7 1    
    13    6   26 1    
    14    6   27 1    
    15    7    9 1    
    16    7   28 1    
    17    7   29 1    
    18    8   10 1    
    19   12    8 1    
    20   10    9 1    
    21    9   15 2    
    22   10   16 2    
    23   13   11 2    
    24   11   30 1    
    25   14   12 2    
    26   12   31 1    
    27   13   14 1    
    28   19   13 1    
    29   14   20 1    
    30   15   17 1    
    31   15   32 1    
    32   16   18 1    
    33   16   33 1    
    34   18   17 2    
    35   19   21 2    
    36   20   23 2    
    37   20   34 1    
    38   21   23 1    
    39   22   35 1    
    40   22   36 1    
    41   23   37 1    
    42   24   38 1    
    43   24   39 1    
    44   24   40 1    
    45   25   41 1    
    46   25   42 1    
    47   25   43 1    
@<TRIPOS>SUBSTRUCTURE
     1 ****        5 TEMP              0 ****  ****    0 ROOT 
@<TRIPOS>NORMAL
@<TRIPOS>FF_PBC
FORCE_FIELD_SETUP_FEATURE Force Field Setup information
v1.0  0 0.000000 0.000000 0.000000 0.000000 0.000000 0.000000 NONE 0 0 0 0 1 0 0 0 0 0 0 0 0
