@<TRIPOS>MOLECULE
MOL000271
   25    25     1     1     0
SMALL
GASTEIGER


@<TRIPOS>ATOM
      1 C          -0.315108   -1.252297   -0.092756 C.3       1 <1>        -0.009991 
      2 C          -1.383549   -0.389242   -0.809385 C.3       1 <1>         0.016888 
      3 C           1.046876   -1.102078   -0.828994 C.3       1 <1>        -0.027204 
      4 C          -0.280681   -0.936083    1.396062 C.2       1 <1>        -0.075911 
      5 C          -0.904955    1.033248   -0.887487 C.2       1 <1>         0.159240 
      6 C           1.411358    0.327096   -1.152123 C.2       1 <1>        -0.077224 
      7 C          -1.246462   -1.718972    2.263439 C.3       1 <1>        -0.043757 
      8 C           0.540529   -0.028763    1.945146 C.2       1 <1>        -0.099426 
      9 C           0.516063    1.324581   -1.164652 C.2       1 <1>        -0.011933 
     10 O          -1.701489    1.944126   -0.726121 O.2       1 <1>        -0.292394 
     11 C           0.962774    2.735663   -1.469128 C.3       1 <1>        -0.036707 
     12 H          -0.604901   -2.313692   -0.188269 H         1 <1>         0.035253 
     13 H          -2.343881   -0.439183   -0.273395 H         1 <1>         0.035087 
     14 H          -1.545962   -0.746477   -1.838356 H         1 <1>         0.035087 
     15 H           1.835156   -1.561285   -0.210676 H         1 <1>         0.031334 
     16 H           1.014118   -1.639009   -1.791218 H         1 <1>         0.031334 
     17 H           2.456822    0.540784   -1.380815 H         1 <1>         0.057586 
     18 H          -0.975236   -2.785170    2.240772 H         1 <1>         0.027436 
     19 H          -1.238547   -1.391400    3.314113 H         1 <1>         0.027436 
     20 H          -2.273894   -1.610127    1.887317 H         1 <1>         0.027436 
     21 H           0.532334    0.165516    3.017031 H         1 <1>         0.053440 
     22 H           1.253477    0.561487    1.377123 H         1 <1>         0.053440 
     23 H           0.110007    3.392849   -1.695557 H         1 <1>         0.027849 
     24 H           1.495027    3.140545   -0.595400 H         1 <1>         0.027849 
     25 H           1.640020    2.747883   -2.336773 H         1 <1>         0.027849 
@<TRIPOS>BOND
     1    1    2 1    
     2    1    3 1    
     3    1    4 1    
     4    1   12 1    
     5    2    5 1    
     6    2   13 1    
     7    2   14 1    
     8    3    6 1    
     9    3   15 1    
    10    3   16 1    
    11    4    7 1    
    12    4    8 2    
    13    5    9 1    
    14    5   10 2    
    15    6    9 2    
    16    6   17 1    
    17    7   18 1    
    18    7   19 1    
    19    7   20 1    
    20    8   21 1    
    21    8   22 1    
    22    9   11 1    
    23   11   23 1    
    24   11   24 1    
    25   11   25 1    
@<TRIPOS>SUBSTRUCTURE
     1 ****        1 TEMP              0 ****  ****    0 ROOT 
@<TRIPOS>NORMAL
@<TRIPOS>FF_PBC
FORCE_FIELD_SETUP_FEATURE Force Field Setup information
v1.0  0 0.000000 0.000000 0.000000 0.000000 0.000000 0.000000 NONE 0 0 0 0 1 0 0 0 0 0 0 0 0
