@<TRIPOS>MOLECULE
MOL005009
   44    45     1     1     0
SMALL
GASTEIGER


@<TRIPOS>ATOM
      1 O          -1.975529   -0.926822   -1.385954 O.3       1 <1>        -0.358758 
      2 O          -3.802330    3.289251    0.338033 O.3       1 <1>        -0.359468 
      3 O           0.582284   -0.904659   -1.923264 O.2       1 <1>        -0.287193 
      4 O           8.541643    0.228497    1.208531 O.3       1 <1>        -0.359832 
      5 C          -2.918624    1.195784   -0.516634 C.ar      1 <1>         0.016409 
      6 C          -4.329044    0.600244   -0.631329 C.3       1 <1>        -0.004341 
      7 C          -1.748782    0.367328   -0.907748 C.ar      1 <1>         0.089261 
      8 C          -0.438007    0.881289   -0.783488 C.ar      1 <1>         0.051755 
      9 C          -2.721969    2.497612   -0.043541 C.ar      1 <1>         0.078522 
     10 C          -4.599740   -0.181151    0.634611 C.2       1 <1>        -0.080815 
     11 C          -0.249071    2.274744   -0.306178 C.ar      1 <1>        -0.046007 
     12 C          -1.353229    3.050873    0.054804 C.ar      1 <1>        -0.030827 
     13 C          -4.827414   -1.501245    0.752184 C.2       1 <1>        -0.079306 
     14 C           0.754054    0.014329   -1.137987 C.2       1 <1>         0.188552 
     15 C          -5.109724   -2.117109    2.107057 C.3       1 <1>        -0.044040 
     16 C          -4.836982   -2.479459   -0.403636 C.3       1 <1>        -0.044040 
     17 C           2.097242    0.227967   -0.556382 C.2       1 <1>        -0.013708 
     18 C           4.589138   -0.168965   -0.434228 C.ar      1 <1>        -0.024759 
     19 C           3.204122   -0.373702   -1.015708 C.2       1 <1>        -0.050956 
     20 C           4.972842    0.996027    0.235439 C.ar      1 <1>        -0.052161 
     21 C           5.580793   -1.261948   -0.596572 C.ar      1 <1>        -0.052161 
     22 C           6.338649    1.123571    0.799635 C.ar      1 <1>        -0.031383 
     23 C           6.873425   -1.142195   -0.072614 C.ar      1 <1>        -0.031383 
     24 C           7.265544    0.087983    0.659102 C.ar      1 <1>         0.072617 
     25 H          -5.080961    1.399834   -0.715999 H         1 <1>         0.035721 
     26 H          -4.403204    0.011888   -1.554943 H         1 <1>         0.035721 
     27 H          -4.606860    0.428208    1.539303 H         1 <1>         0.057473 
     28 H           0.742314    2.709009   -0.241460 H         1 <1>         0.062620 
     29 H          -1.216816    4.067734    0.407930 H         1 <1>         0.064350 
     30 H          -5.215477   -1.374671    2.912587 H         1 <1>         0.027427 
     31 H          -6.045318   -2.694559    2.053726 H         1 <1>         0.027427 
     32 H          -4.287739   -2.797767    2.376306 H         1 <1>         0.027427 
     33 H          -4.140737   -2.216965   -1.209149 H         1 <1>         0.027427 
     34 H          -4.551874   -3.485615   -0.059686 H         1 <1>         0.027427 
     35 H          -5.856258   -2.530149   -0.814171 H         1 <1>         0.027427 
     36 H           2.163303    0.894563    0.298351 H         1 <1>         0.065602 
     37 H          -1.234141   -1.313290   -1.842933 H         1 <1>         0.217352 
     38 H           3.119403   -1.065951   -1.854262 H         1 <1>         0.062459 
     39 H          -4.158824    2.997153    1.169631 H         1 <1>         0.217326 
     40 H           4.288924    1.828126    0.352049 H         1 <1>         0.062423 
     41 H           5.303140   -2.166605   -1.127793 H         1 <1>         0.062423 
     42 H           6.625050    2.026639    1.328875 H         1 <1>         0.064338 
     43 H           7.584875   -1.950302   -0.204582 H         1 <1>         0.064338 
     44 H           9.082808   -0.547024    1.113790 H         1 <1>         0.217313 
@<TRIPOS>BOND
     1    7    1 1    
     2    1   37 1    
     3    9    2 1    
     4    2   39 1    
     5   14    3 2    
     6   24    4 1    
     7    4   44 1    
     8    5    6 1    
     9    7    5 1    
    10    5    9 2    
    11    6   10 1    
    12    6   25 1    
    13    6   26 1    
    14    8    7 2    
    15    8   11 1    
    16   14    8 1    
    17   12    9 1    
    18   10   13 2    
    19   10   27 1    
    20   11   12 2    
    21   11   28 1    
    22   12   29 1    
    23   13   15 1    
    24   13   16 1    
    25   17   14 1    
    26   15   30 1    
    27   15   31 1    
    28   15   32 1    
    29   16   33 1    
    30   16   34 1    
    31   16   35 1    
    32   19   17 2    
    33   17   36 1    
    34   18   19 1    
    35   20   18 2    
    36   18   21 1    
    37   19   38 1    
    38   22   20 1    
    39   20   40 1    
    40   21   23 2    
    41   21   41 1    
    42   22   24 2    
    43   22   42 1    
    44   23   24 1    
    45   23   43 1    
@<TRIPOS>SUBSTRUCTURE
     1 ****        5 TEMP              0 ****  ****    0 ROOT 
@<TRIPOS>NORMAL
@<TRIPOS>FF_PBC
FORCE_FIELD_SETUP_FEATURE Force Field Setup information
v1.0  0 0.000000 0.000000 0.000000 0.000000 0.000000 0.000000 NONE 0 0 0 0 1 0 0 0 0 0 0 0 0
