@<TRIPOS>MOLECULE
MOL010415
   61    60     1     1     0
SMALL
GASTEIGER


@<TRIPOS>ATOM
      1 O          -8.705381    0.722805    0.373889 O.3       1 <1>        -0.318522 
      2 O          -6.989177    1.293926    1.606061 O.2       1 <1>        -0.264985 
      3 C          -3.952605   -4.819914   -0.070157 C.3       1 <1>        -0.053057 
      4 C          -4.123514   -6.343958    0.173059 C.3       1 <1>        -0.053048 
      5 C          -5.278461   -4.061395    0.212119 C.3       1 <1>        -0.053045 
      6 C          -2.787466   -7.105164   -0.044579 C.3       1 <1>        -0.052779 
      7 C          -5.157535   -2.540445   -0.080852 C.3       1 <1>        -0.052596 
      8 C          -2.982258   -8.637376    0.124132 C.3       1 <1>        -0.049607 
      9 C          -6.460500   -1.790173    0.321350 C.3       1 <1>        -0.044055 
     10 C          -1.655240   -9.415015   -0.092515 C.3       1 <1>        -0.034468 
     11 C          -6.408391   -0.281959   -0.052774 C.3       1 <1>         0.033189 
     12 C           0.682091  -17.991272   -0.036674 C.3       1 <1>        -0.052788 
     13 C           0.975640  -16.467995    0.055645 C.3       1 <1>        -0.049607 
     14 C           1.985340  -18.833637    0.031926 C.3       1 <1>        -0.053297 
     15 C          -0.329501  -15.632793   -0.048853 C.3       1 <1>        -0.034468 
     16 C          -1.872487  -10.911434   -0.082675 C.2       1 <1>        -0.084016 
     17 C           1.673191  -20.353939   -0.026021 C.3       1 <1>        -0.055911 
     18 C          -7.397418    0.610107    0.681779 C.2       1 <1>         0.261905 
     19 C          -0.071052  -14.144415    0.003993 C.2       1 <1>        -0.084016 
     20 C          -0.866764  -11.789108    0.032617 C.2       1 <1>        -0.065982 
     21 C           2.970292  -21.203389    0.007337 C.3       1 <1>        -0.065276 
     22 C          -1.072974  -13.254672    0.006474 C.2       1 <1>        -0.065982 
     23 C          -9.263212   -0.158356   -0.619109 C.3       1 <1>         0.045865 
     24 H          -3.158182   -4.427866    0.586962 H         1 <1>         0.026528 
     25 H          -3.650807   -4.653170   -1.117540 H         1 <1>         0.026528 
     26 H          -4.888195   -6.734365   -0.519353 H         1 <1>         0.026529 
     27 H          -4.470857   -6.514896    1.204339 H         1 <1>         0.026529 
     28 H          -6.082596   -4.485948   -0.412371 H         1 <1>         0.026529 
     29 H          -5.550023   -4.208118    1.270701 H         1 <1>         0.026529 
     30 H          -2.038110   -6.746083    0.680846 H         1 <1>         0.026538 
     31 H          -2.412199   -6.892866   -1.060381 H         1 <1>         0.026538 
     32 H          -4.959310   -2.386376   -1.154393 H         1 <1>         0.026540 
     33 H          -4.308310   -2.131083    0.489110 H         1 <1>         0.026540 
     34 H          -3.721495   -8.978992   -0.617815 H         1 <1>         0.026822 
     35 H          -3.375837   -8.858945    1.130243 H         1 <1>         0.026822 
     36 H          -7.298784   -2.286068   -0.188862 H         1 <1>         0.027004 
     37 H          -6.607912   -1.888089    1.410091 H         1 <1>         0.027004 
     38 H          -0.929355   -9.129350    0.685549 H         1 <1>         0.030741 
     39 H          -1.234083   -9.148152   -1.074594 H         1 <1>         0.030741 
     40 H          -5.412867    0.085296    0.242109 H         1 <1>         0.036606 
     41 H          -6.471253   -0.146793   -1.141956 H         1 <1>         0.036606 
     42 H           0.166387  -18.208915   -0.986816 H         1 <1>         0.026537 
     43 H           0.015215  -18.285072    0.789880 H         1 <1>         0.026537 
     44 H           1.471345  -16.248436    1.016103 H         1 <1>         0.026822 
     45 H           1.658322  -16.180512   -0.761347 H         1 <1>         0.026822 
     46 H           2.523445  -18.606071    0.966312 H         1 <1>         0.026520 
     47 H           2.637712  -18.562323   -0.814412 H         1 <1>         0.026520 
     48 H          -0.825995  -15.859490   -1.006025 H         1 <1>         0.030741 
     49 H          -1.009740  -15.911442    0.772659 H         1 <1>         0.030741 
     50 H          -2.890366  -11.291333   -0.189865 H         1 <1>         0.057203 
     51 H           1.118908  -20.578382   -0.951980 H         1 <1>         0.026265 
     52 H           1.037957  -20.631679    0.831272 H         1 <1>         0.026265 
     53 H           0.959567  -13.786529    0.032151 H         1 <1>         0.057203 
     54 H           0.151558  -11.407954    0.139798 H         1 <1>         0.061439 
     55 H           3.622794  -20.944441   -0.840517 H         1 <1>         0.022978 
     56 H           3.520980  -21.028390    0.944288 H         1 <1>         0.022978 
     57 H           2.719896  -22.273235   -0.057222 H         1 <1>         0.022978 
     58 H          -2.096675  -13.631201   -0.021846 H         1 <1>         0.061439 
     59 H          -9.312132   -1.193041   -0.252087 H         1 <1>         0.052962 
     60 H         -10.298653    0.180570   -0.775961 H         1 <1>         0.052962 
     61 H          -8.753503   -0.113599   -1.591768 H         1 <1>         0.052962 
@<TRIPOS>BOND
     1   18    1 1    
     2    1   23 1    
     3   18    2 2    
     4    4    3 1    
     5    3    5 1    
     6    3   24 1    
     7    3   25 1    
     8    6    4 1    
     9    4   26 1    
    10    4   27 1    
    11    5    7 1    
    12    5   28 1    
    13    5   29 1    
    14    8    6 1    
    15    6   30 1    
    16    6   31 1    
    17    7    9 1    
    18    7   32 1    
    19    7   33 1    
    20   10    8 1    
    21    8   34 1    
    22    8   35 1    
    23    9   11 1    
    24    9   36 1    
    25    9   37 1    
    26   16   10 1    
    27   10   38 1    
    28   10   39 1    
    29   11   18 1    
    30   11   40 1    
    31   11   41 1    
    32   13   12 1    
    33   12   14 1    
    34   12   42 1    
    35   12   43 1    
    36   15   13 1    
    37   13   44 1    
    38   13   45 1    
    39   14   17 1    
    40   14   46 1    
    41   14   47 1    
    42   19   15 1    
    43   15   48 1    
    44   15   49 1    
    45   20   16 2    
    46   16   50 1    
    47   17   21 1    
    48   17   51 1    
    49   17   52 1    
    50   22   19 2    
    51   19   53 1    
    52   20   22 1    
    53   20   54 1    
    54   21   55 1    
    55   21   56 1    
    56   21   57 1    
    57   22   58 1    
    58   23   59 1    
    59   23   60 1    
    60   23   61 1    
@<TRIPOS>SUBSTRUCTURE
     1 ****        3 TEMP              0 ****  ****    0 ROOT 
@<TRIPOS>NORMAL
@<TRIPOS>FF_PBC
FORCE_FIELD_SETUP_FEATURE Force Field Setup information
v1.0  0 0.000000 0.000000 0.000000 0.000000 0.000000 0.000000 NONE 0 0 0 0 1 0 0 0 0 0 0 0 0
