@<TRIPOS>MOLECULE
MOL000675
   54    53     1     1     0
SMALL
GASTEIGER


@<TRIPOS>ATOM
      1 C          -3.223254    0.742830    0.094771 C.3       1 <1>        -0.049616 
      2 C          -1.887774    0.002203    0.378718 C.3       1 <1>        -0.034761 
      3 C          -3.080340    2.278113    0.285291 C.3       1 <1>        -0.052779 
      4 C          -2.034601   -1.488596    0.172144 C.2       1 <1>        -0.087932 
      5 C          -4.423825    3.007807    0.008843 C.3       1 <1>        -0.053036 
      6 C          -1.036868   -2.315500   -0.174511 C.2       1 <1>        -0.087932 
      7 C          -4.286307    4.543819    0.195644 C.3       1 <1>        -0.052596 
      8 C           0.401033   -1.894399   -0.378690 C.3       1 <1>        -0.034761 
      9 C          -5.631398    5.269397   -0.082895 C.3       1 <1>        -0.044061 
     10 C           1.376177   -3.071322   -0.102288 C.3       1 <1>        -0.049616 
     11 C          -5.498214    6.805586    0.101112 C.3       1 <1>         0.033006 
     12 C           2.858669   -2.643717   -0.284070 C.3       1 <1>        -0.052779 
     13 C          -6.789967    7.533101   -0.169783 C.2       1 <1>         0.259588 
     14 C           3.823517   -3.831352   -0.015492 C.3       1 <1>        -0.053048 
     15 O          -6.735327    8.859478   -0.032404 O.3       1 <1>        -0.331267 
     16 O          -7.814319    6.951454   -0.492213 O.2       1 <1>        -0.265177 
     17 C           5.308189   -3.409474   -0.190288 C.3       1 <1>        -0.053065 
     18 C           6.268956   -4.599476    0.081619 C.3       1 <1>        -0.053306 
     19 C           7.753943   -4.181220   -0.096510 C.3       1 <1>        -0.055911 
     20 C           8.711007   -5.370027    0.179650 C.3       1 <1>        -0.065276 
     21 H          -3.538794    0.529169   -0.940041 H         1 <1>         0.026822 
     22 H          -4.001733    0.365698    0.778675 H         1 <1>         0.026822 
     23 H          -1.581953    0.179897    1.421925 H         1 <1>         0.030732 
     24 H          -1.117246    0.414351   -0.291459 H         1 <1>         0.030732 
     25 H          -2.756482    2.488108    1.317991 H         1 <1>         0.026538 
     26 H          -2.309377    2.661674   -0.403160 H         1 <1>         0.026538 
     27 H          -3.025836   -1.922950    0.317544 H         1 <1>         0.056896 
     28 H          -4.747804    2.794148   -1.023117 H         1 <1>         0.026529 
     29 H          -5.194522    2.625517    0.698367 H         1 <1>         0.026529 
     30 H          -1.279847   -3.369892   -0.321548 H         1 <1>         0.056896 
     31 H          -3.963352    4.757877    1.227814 H         1 <1>         0.026540 
     32 H          -3.515961    4.926755   -0.493861 H         1 <1>         0.026540 
     33 H           0.519415   -1.554316   -1.419697 H         1 <1>         0.030732 
     34 H           0.663092   -1.065332    0.297103 H         1 <1>         0.030732 
     35 H          -5.955365    5.057207   -1.115381 H         1 <1>         0.027004 
     36 H          -6.403315    4.889540    0.606961 H         1 <1>         0.027004 
     37 H           1.221939   -3.430138    0.928969 H         1 <1>         0.026822 
     38 H           1.152541   -3.900358   -0.794156 H         1 <1>         0.026822 
     39 H          -5.187827    7.031752    1.133213 H         1 <1>         0.036600 
     40 H          -4.733840    7.198427   -0.587441 H         1 <1>         0.036600 
     41 H           3.008703   -2.276455   -1.312698 H         1 <1>         0.026538 
     42 H           3.090288   -1.821766    0.413217 H         1 <1>         0.026538 
     43 H           3.668860   -4.200473    1.011794 H         1 <1>         0.026529 
     44 H           3.594460   -4.652113   -0.715076 H         1 <1>         0.026529 
     45 H          -7.574787    9.267639   -0.214958 H         1 <1>         0.220208 
     46 H           5.464314   -3.042268   -1.218013 H         1 <1>         0.026528 
     47 H           5.538651   -2.588538    0.508566 H         1 <1>         0.026528 
     48 H           6.115268   -4.964602    1.110486 H         1 <1>         0.026520 
     49 H           6.037599   -5.422231   -0.614847 H         1 <1>         0.026520 
     50 H           7.914909   -3.820769   -1.126303 H         1 <1>         0.026265 
     51 H           7.992077   -3.358413    0.598150 H         1 <1>         0.026265 
     52 H           9.757483   -5.052919    0.046515 H         1 <1>         0.022978 
     53 H           8.584084   -5.734073    1.211184 H         1 <1>         0.022978 
     54 H           8.505161   -6.198763   -0.515673 H         1 <1>         0.022978 
@<TRIPOS>BOND
     1    1    2 1    
     2    1    3 1    
     3    1   21 1    
     4    1   22 1    
     5    2    4 1    
     6    2   23 1    
     7    2   24 1    
     8    3    5 1    
     9    3   25 1    
    10    3   26 1    
    11    4    6 2    
    12    4   27 1    
    13    5    7 1    
    14    5   28 1    
    15    5   29 1    
    16    6    8 1    
    17    6   30 1    
    18    7    9 1    
    19    7   31 1    
    20    7   32 1    
    21    8   10 1    
    22    8   33 1    
    23    8   34 1    
    24    9   11 1    
    25    9   35 1    
    26    9   36 1    
    27   10   12 1    
    28   10   37 1    
    29   10   38 1    
    30   11   13 1    
    31   11   39 1    
    32   11   40 1    
    33   12   14 1    
    34   12   41 1    
    35   12   42 1    
    36   13   15 1    
    37   13   16 2    
    38   14   17 1    
    39   14   43 1    
    40   14   44 1    
    41   15   45 1    
    42   17   18 1    
    43   17   46 1    
    44   17   47 1    
    45   18   19 1    
    46   18   48 1    
    47   18   49 1    
    48   19   20 1    
    49   19   50 1    
    50   19   51 1    
    51   20   52 1    
    52   20   53 1    
    53   20   54 1    
@<TRIPOS>SUBSTRUCTURE
     1 ****        1 TEMP              0 ****  ****    0 ROOT 
@<TRIPOS>NORMAL
@<TRIPOS>FF_PBC
FORCE_FIELD_SETUP_FEATURE Force Field Setup information
v1.0  0 0.000000 0.000000 0.000000 0.000000 0.000000 0.000000 NONE 0 0 0 0 1 0 0 0 0 0 0 0 0
