@<TRIPOS>MOLECULE
MOL004819
   60    62     1     1     0
SMALL
GASTEIGER


@<TRIPOS>ATOM
      1 C          -3.784367   -2.128453    0.254453 C.ar      1 <1>         0.080686 
      2 C          -3.317610   -0.746931   -0.062437 C.ar      1 <1>         0.012952 
      3 C          -1.947711   -0.511698   -0.227203 C.ar      1 <1>         0.091498 
      4 C          -0.975878   -1.616058   -0.090381 C.ar      1 <1>         0.082784 
      5 C          -1.385923   -2.891194    0.277296 C.ar      1 <1>         0.098076 
      6 C          -2.840796   -3.160605    0.439035 C.ar      1 <1>        -0.000288 
      7 C           0.492346   -1.398051   -0.339453 C.2       1 <1>         0.200663 
      8 C           1.399905   -2.517772   -0.070942 C.2       1 <1>         0.055114 
      9 C           0.885871   -3.695044    0.342755 C.2       1 <1>         0.058337 
     10 O          -0.442164   -3.901531    0.488852 O.3       1 <1>        -0.315267 
     11 O           0.906277   -0.327790   -0.754126 O.2       1 <1>        -0.286388 
     12 C           2.894877   -2.343772   -0.275414 C.ar      1 <1>         0.017863 
     13 C           3.653362   -3.435657   -0.926337 C.ar      1 <1>        -0.048941 
     14 C           5.046191   -3.361476   -1.046154 C.ar      1 <1>        -0.030923 
     15 C           5.777716   -2.165852   -0.565242 C.ar      1 <1>         0.078519 
     16 C           5.061501   -1.058669   -0.053957 C.ar      1 <1>         0.016309 
     17 C           3.593388   -1.175756    0.135655 C.ar      1 <1>         0.086342 
     18 O          -1.500746    0.773956   -0.500017 O.3       1 <1>        -0.358683 
     19 O          -5.152050   -2.396605    0.377145 O.3       1 <1>        -0.359395 
     20 C          -4.188396    0.512764   -0.213237 C.3       1 <1>        -0.020199 
     21 O           2.915174   -0.127881    0.751240 O.3       1 <1>        -0.358859 
     22 C           5.761945    0.269042    0.322156 C.3       1 <1>        -0.004343 
     23 C           5.079275    1.457982   -0.317073 C.2       1 <1>        -0.080815 
     24 O           7.169356   -2.154784   -0.639087 O.3       1 <1>        -0.359468 
     25 C           5.342845    2.745159   -0.044418 C.2       1 <1>        -0.079306 
     26 C           4.541041    3.849974   -0.706889 C.3       1 <1>        -0.044040 
     27 C           6.428270    3.204302    0.913925 C.3       1 <1>        -0.044040 
     28 C          -5.711281    0.314338   -0.064893 C.3       1 <1>        -0.020375 
     29 C          -6.508939    1.650291   -0.152041 C.3       1 <1>         0.060838 
     30 C          -8.019533    1.294151   -0.217682 C.3       1 <1>        -0.036330 
     31 C          -6.224201    2.577980    1.066930 C.3       1 <1>        -0.036330 
     32 O          -6.136564    2.338090   -1.359337 O.3       1 <1>        -0.389109 
     33 H          -3.162198   -4.160580    0.696166 H         1 <1>         0.066956 
     34 H           1.537096   -4.535817    0.578969 H         1 <1>         0.089750 
     35 H           3.132137   -4.307749   -1.319719 H         1 <1>         0.062523 
     36 H           5.599063   -4.174606   -1.507894 H         1 <1>         0.064349 
     37 H          -0.909909    1.057237    0.196574 H         1 <1>         0.217354 
     38 H          -5.397425   -3.274457    0.107518 H         1 <1>         0.217327 
     39 H          -3.833729    1.210297    0.559317 H         1 <1>         0.031567 
     40 H          -3.982690    0.953249   -1.202497 H         1 <1>         0.031567 
     41 H           2.326246    0.297975    0.132116 H         1 <1>         0.217351 
     42 H           5.762001    0.360879    1.421391 H         1 <1>         0.035721 
     43 H           6.796804    0.299691   -0.046197 H         1 <1>         0.035721 
     44 H           4.316610    1.239267   -1.066726 H         1 <1>         0.057473 
     45 H           7.566189   -1.896595    0.188363 H         1 <1>         0.217326 
     46 H           3.625608    3.486170   -1.197069 H         1 <1>         0.027427 
     47 H           5.158373    4.346562   -1.467313 H         1 <1>         0.027427 
     48 H           4.235806    4.592485    0.043244 H         1 <1>         0.027427 
     49 H           7.135230    2.414679    1.204133 H         1 <1>         0.027427 
     50 H           7.019147    4.005985    0.447826 H         1 <1>         0.027427 
     51 H           5.968546    3.601638    1.830234 H         1 <1>         0.027427 
     52 H          -6.030690   -0.359492   -0.875854 H         1 <1>         0.029581 
     53 H          -5.924699   -0.158932    0.905098 H         1 <1>         0.029581 
     54 H          -8.642412    2.200276   -0.245308 H         1 <1>         0.025712 
     55 H          -8.224411    0.710960   -1.128906 H         1 <1>         0.025712 
     56 H          -8.307686    0.694180    0.658782 H         1 <1>         0.025712 
     57 H          -6.957750    3.397055    1.109168 H         1 <1>         0.025712 
     58 H          -5.228073    3.037682    0.989578 H         1 <1>         0.025712 
     59 H          -6.282839    2.015689    2.010733 H         1 <1>         0.025712 
     60 H          -6.595151    3.164094   -1.476819 H         1 <1>         0.210135 
@<TRIPOS>BOND
     1    1    2 1    
     2    1    6 2    
     3    1   19 1    
     4    2    3 2    
     5    2   20 1    
     6    3    4 1    
     7    3   18 1    
     8    4    5 2    
     9    4    7 1    
    10    5    6 1    
    11    5   10 1    
    12    6   33 1    
    13    7    8 1    
    14    7   11 2    
    15    8    9 2    
    16    8   12 1    
    17    9   10 1    
    18    9   34 1    
    19   12   13 1    
    20   12   17 2    
    21   13   14 2    
    22   13   35 1    
    23   14   15 1    
    24   14   36 1    
    25   15   16 2    
    26   15   24 1    
    27   16   17 1    
    28   16   22 1    
    29   17   21 1    
    30   18   37 1    
    31   19   38 1    
    32   20   28 1    
    33   20   39 1    
    34   20   40 1    
    35   21   41 1    
    36   22   23 1    
    37   22   42 1    
    38   22   43 1    
    39   23   25 2    
    40   23   44 1    
    41   24   45 1    
    42   25   26 1    
    43   25   27 1    
    44   26   46 1    
    45   26   47 1    
    46   26   48 1    
    47   27   49 1    
    48   27   50 1    
    49   27   51 1    
    50   28   29 1    
    51   28   52 1    
    52   28   53 1    
    53   29   30 1    
    54   29   31 1    
    55   29   32 1    
    56   30   54 1    
    57   30   55 1    
    58   30   56 1    
    59   31   57 1    
    60   31   58 1    
    61   31   59 1    
    62   32   60 1    
@<TRIPOS>SUBSTRUCTURE
     1 ****        1 TEMP              0 ****  ****    0 ROOT 
@<TRIPOS>NORMAL
@<TRIPOS>FF_PBC
FORCE_FIELD_SETUP_FEATURE Force Field Setup information
v1.0  0 0.000000 0.000000 0.000000 0.000000 0.000000 0.000000 NONE 0 0 0 0 1 0 0 0 0 0 0 0 0
