@<TRIPOS>MOLECULE
MOL002159
   33    32     1     1     0
SMALL
GASTEIGER


@<TRIPOS>ATOM
      1 C          -3.234999   -0.077459   -1.863737 C.3       1 <1>         0.046770 
      2 C          -2.501608   -1.377952   -1.428442 C.3       1 <1>        -0.020644 
      3 C          -1.537998   -1.154597   -0.222379 C.3       1 <1>        -0.048384 
      4 C          -0.444127   -0.080695   -0.478513 C.3       1 <1>        -0.052736 
      5 C           0.596296   -0.040805    0.676007 C.3       1 <1>        -0.052814 
      6 C           1.684938    1.039454    0.421132 C.3       1 <1>        -0.050709 
      7 C           2.655608    1.249173    1.623001 C.3       1 <1>        -0.046721 
      8 C           3.445940   -0.040603    1.981967 C.3       1 <1>        -0.062665 
      9 O          -2.321611    0.798057   -2.550417 O.3       1 <1>        -0.394743 
     10 C           3.651026    2.399213    1.299660 C.3       1 <1>        -0.062665 
     11 C          -3.537471   -2.480614   -1.065581 C.3       1 <1>        -0.060335 
     12 H          -4.052966   -0.329585   -2.560338 H         1 <1>         0.055963 
     13 H          -3.669997    0.414748   -0.977653 H         1 <1>         0.055963 
     14 H          -1.913970   -1.736811   -2.291570 H         1 <1>         0.032014 
     15 H          -2.120186   -0.865108    0.667611 H         1 <1>         0.026856 
     16 H          -1.038653   -2.112478   -0.002110 H         1 <1>         0.026856 
     17 H           0.070918   -0.298799   -1.428379 H         1 <1>         0.026538 
     18 H          -0.913648    0.912639   -0.553358 H         1 <1>         0.026538 
     19 H           0.078352    0.176328    1.624493 H         1 <1>         0.026537 
     20 H           1.066254   -1.033658    0.752481 H         1 <1>         0.026537 
     21 H           2.262193    0.765266   -0.476776 H         1 <1>         0.026777 
     22 H           1.178711    1.997664    0.218206 H         1 <1>         0.026777 
     23 H           2.065087    1.551060    2.506324 H         1 <1>         0.029548 
     24 H           4.190265    0.172252    2.764988 H         1 <1>         0.023233 
     25 H           2.778652   -0.825250    2.367670 H         1 <1>         0.023233 
     26 H           3.973093   -0.425669    1.095748 H         1 <1>         0.023233 
     27 H          -2.721874    1.614872   -2.833895 H         1 <1>         0.209407 
     28 H           4.313998    2.591969    2.157611 H         1 <1>         0.023233 
     29 H           3.109240    3.330505    1.072054 H         1 <1>         0.023233 
     30 H           4.272708    2.134452    0.430565 H         1 <1>         0.023233 
     31 H          -3.027505   -3.411587   -0.772585 H         1 <1>         0.023312 
     32 H          -4.186461   -2.706483   -1.926163 H         1 <1>         0.023312 
     33 H          -4.170505   -2.149296   -0.227923 H         1 <1>         0.023312 
@<TRIPOS>BOND
     1    1    2 1    
     2    1    9 1    
     3    1   12 1    
     4    1   13 1    
     5    2    3 1    
     6    2   11 1    
     7    2   14 1    
     8    3    4 1    
     9    3   15 1    
    10    3   16 1    
    11    4    5 1    
    12    4   17 1    
    13    4   18 1    
    14    5    6 1    
    15    5   19 1    
    16    5   20 1    
    17    6    7 1    
    18    6   21 1    
    19    6   22 1    
    20    7    8 1    
    21    7   10 1    
    22    7   23 1    
    23    8   24 1    
    24    8   25 1    
    25    8   26 1    
    26    9   27 1    
    27   10   28 1    
    28   10   29 1    
    29   10   30 1    
    30   11   31 1    
    31   11   32 1    
    32   11   33 1    
@<TRIPOS>SUBSTRUCTURE
     1 ****        1 TEMP              0 ****  ****    0 ROOT 
@<TRIPOS>NORMAL
@<TRIPOS>FF_PBC
FORCE_FIELD_SETUP_FEATURE Force Field Setup information
v1.0  0 0.000000 0.000000 0.000000 0.000000 0.000000 0.000000 NONE 0 0 0 0 1 0 0 0 0 0 0 0 0
