@<TRIPOS>MOLECULE
MOL004674
   71    75     1     1     0
SMALL
GASTEIGER


@<TRIPOS>ATOM
      1 C           1.245274    0.048232    0.995229 C.2       1 <1>         0.123961 
      2 C           1.637929   -1.218678    0.770891 C.2       1 <1>         0.157590 
      3 C           0.636156   -2.250528    0.387690 C.2       1 <1>         0.223405 
      4 C          -0.751256   -1.778400    0.037179 C.ar      1 <1>         0.084563 
      5 C          -1.019848   -0.351693    0.289758 C.ar      1 <1>         0.099010 
      6 O          -0.022149    0.462574    0.818755 O.3       1 <1>        -0.305122 
      7 C          -2.276435    0.193256   -0.000499 C.ar      1 <1>        -0.000159 
      8 C          -3.352788   -0.663879   -0.563049 C.ar      1 <1>         0.084401 
      9 C          -3.093744   -2.024451   -0.799154 C.ar      1 <1>        -0.000932 
     10 C          -1.763831   -2.612649   -0.498124 C.ar      1 <1>         0.088410 
     11 O           0.861563   -3.449765    0.367351 O.2       1 <1>        -0.284261 
     12 C           2.226161    1.112040    1.445195 C.ar      1 <1>         0.008305 
     13 C           2.051984    2.487820    0.918064 C.ar      1 <1>        -0.049598 
     14 C           2.937150    3.518277    1.291940 C.ar      1 <1>        -0.031302 
     15 C           4.059277    3.247339    2.219101 C.ar      1 <1>         0.072619 
     16 C           4.230398    1.934334    2.738711 C.ar      1 <1>        -0.031302 
     17 C           3.293124    0.852335    2.353696 C.ar      1 <1>        -0.049598 
     18 O           4.925932    4.287842    2.563820 O.3       1 <1>        -0.359832 
     19 O          -1.504886   -3.963686   -0.737422 O.3       1 <1>        -0.358954 
     20 O          -4.622727   -0.161811   -0.869998 O.3       1 <1>        -0.312387 
     21 C          -4.962862    1.211653   -0.619011 C.3       1 <1>         0.193532 
     22 C          -6.426081    1.440483   -1.069434 C.3       1 <1>         0.134506 
     23 O          -6.541358    1.206800   -2.490057 O.3       1 <1>        -0.384091 
     24 C          -6.848352    2.887948   -0.702768 C.3       1 <1>         0.113985 
     25 O          -6.090576    3.831431   -1.486094 O.3       1 <1>        -0.386402 
     26 C          -6.655992    3.095844    0.821739 C.3       1 <1>         0.109478 
     27 O          -7.622706    2.250518    1.479603 O.3       1 <1>        -0.386579 
     28 C          -5.203218    2.732744    1.251547 C.3       1 <1>         0.087319 
     29 O          -4.832968    1.413800    0.803334 O.3       1 <1>        -0.342717 
     30 C          -4.141344    3.806473    0.882457 C.3       1 <1>        -0.036060 
     31 O           2.953311   -1.494118    0.897034 O.3       1 <1>        -0.306084 
     32 C           3.453126   -2.735906    0.374072 C.3       1 <1>         0.193801 
     33 C           5.008172   -2.737263    0.481441 C.3       1 <1>         0.134510 
     34 O           5.440428   -2.039232    1.670699 O.3       1 <1>        -0.384091 
     35 C           5.576795   -2.128955   -0.825916 C.3       1 <1>         0.113985 
     36 O           5.043471   -0.799219   -1.003142 O.3       1 <1>        -0.386402 
     37 C           5.213796   -3.080748   -2.004089 C.3       1 <1>         0.109478 
     38 O           6.182198   -4.148827   -2.043529 O.3       1 <1>        -0.386579 
     39 C           3.779269   -3.665360   -1.820296 C.3       1 <1>         0.087319 
     40 O           3.005865   -2.778410   -1.000098 O.3       1 <1>        -0.342713 
     41 C           3.043012   -3.829021   -3.173415 C.3       1 <1>        -0.036060 
     42 H          -2.431470    1.245326    0.196247 H         1 <1>         0.066957 
     43 H          -3.884467   -2.642977   -1.208309 H         1 <1>         0.066933 
     44 H           1.234989    2.703170    0.236778 H         1 <1>         0.062504 
     45 H           2.803137    4.521312    0.901728 H         1 <1>         0.064339 
     46 H           5.045164    1.711519    3.419052 H         1 <1>         0.064339 
     47 H           3.434639   -0.133115    2.782977 H         1 <1>         0.062504 
     48 H           5.630014    4.030477    3.148064 H         1 <1>         0.217313 
     49 H          -2.247295   -4.445262   -1.083395 H         1 <1>         0.217342 
     50 H          -4.309070    1.854303   -1.228571 H         1 <1>         0.094158 
     51 H          -7.049072    0.713101   -0.520239 H         1 <1>         0.067108 
     52 H          -7.428570    1.316162   -2.816448 H         1 <1>         0.210111 
     53 H          -7.919864    3.003824   -0.944837 H         1 <1>         0.064757 
     54 H          -6.346659    4.737517   -1.342757 H         1 <1>         0.210005 
     55 H          -6.876304    4.147343    1.075525 H         1 <1>         0.064584 
     56 H          -7.611182    2.318693    2.429496 H         1 <1>         0.210002 
     57 H          -5.190826    2.672097    2.352834 H         1 <1>         0.062075 
     58 H          -3.163932    3.506940    1.291425 H         1 <1>         0.025536 
     59 H          -4.415623    4.776728    1.324810 H         1 <1>         0.025536 
     60 H          -4.023321    3.947341   -0.198702 H         1 <1>         0.025536 
     61 H           3.094223   -3.581736    0.983246 H         1 <1>         0.094162 
     62 H           5.372012   -3.779264    0.546080 H         1 <1>         0.067108 
     63 H           6.386506   -2.000362    1.765196 H         1 <1>         0.210111 
     64 H           6.676128   -2.061761   -0.748321 H         1 <1>         0.064757 
     65 H           5.375029   -0.346302   -1.771393 H         1 <1>         0.210005 
     66 H           5.287258   -2.490932   -2.933704 H         1 <1>         0.064584 
     67 H           6.052293   -4.747204   -2.773442 H         1 <1>         0.210002 
     68 H           3.825833   -4.657500   -1.337267 H         1 <1>         0.062075 
     69 H           2.042723   -4.256766   -3.001484 H         1 <1>         0.025536 
     70 H           3.604985   -4.497316   -3.843810 H         1 <1>         0.025536 
     71 H           2.921427   -2.849533   -3.660973 H         1 <1>         0.025536 
@<TRIPOS>BOND
     1    1    2 2    
     2    1    6 1    
     3    1   12 1    
     4    2    3 1    
     5    2   31 1    
     6    3    4 1    
     7    3   11 2    
     8    4    5 1    
     9    4   10 2    
    10    5    6 1    
    11    5    7 2    
    12    7    8 1    
    13    7   42 1    
    14    8    9 2    
    15    8   20 1    
    16    9   10 1    
    17    9   43 1    
    18   10   19 1    
    19   12   13 1    
    20   12   17 2    
    21   13   14 2    
    22   13   44 1    
    23   14   15 1    
    24   14   45 1    
    25   15   16 2    
    26   15   18 1    
    27   16   17 1    
    28   16   46 1    
    29   17   47 1    
    30   18   48 1    
    31   19   49 1    
    32   20   21 1    
    33   21   22 1    
    34   21   29 1    
    35   21   50 1    
    36   22   23 1    
    37   22   24 1    
    38   22   51 1    
    39   23   52 1    
    40   24   25 1    
    41   24   26 1    
    42   24   53 1    
    43   25   54 1    
    44   26   27 1    
    45   26   28 1    
    46   26   55 1    
    47   27   56 1    
    48   28   29 1    
    49   28   30 1    
    50   28   57 1    
    51   30   58 1    
    52   30   59 1    
    53   30   60 1    
    54   31   32 1    
    55   32   33 1    
    56   32   40 1    
    57   32   61 1    
    58   33   34 1    
    59   33   35 1    
    60   33   62 1    
    61   34   63 1    
    62   35   36 1    
    63   35   37 1    
    64   35   64 1    
    65   36   65 1    
    66   37   38 1    
    67   37   39 1    
    68   37   66 1    
    69   38   67 1    
    70   39   40 1    
    71   39   41 1    
    72   39   68 1    
    73   41   69 1    
    74   41   70 1    
    75   41   71 1    
@<TRIPOS>SUBSTRUCTURE
     1 ****        1 TEMP              0 ****  ****    0 ROOT 
@<TRIPOS>NORMAL
@<TRIPOS>FF_PBC
FORCE_FIELD_SETUP_FEATURE Force Field Setup information
v1.0  0 0.000000 0.000000 0.000000 0.000000 0.000000 0.000000 NONE 0 0 0 0 1 0 0 0 0 0 0 0 0
