@<TRIPOS>MOLECULE
MOL013443
   38    39     1     1     0
SMALL
GASTEIGER


@<TRIPOS>ATOM
      1 I           0.329774   -1.666861   -1.384023 I         1 <1>        -0.041548 
      2 I          -4.056466   -0.425319    2.547927 I         1 <1>        -0.041830 
      3 I           1.443511    1.734701    3.630358 I         1 <1>        -0.043469 
      4 O          -2.235753   -3.615544    0.592584 O.2       1 <1>        -0.275255 
      5 O           0.437807    2.396334   -0.386479 O.3       1 <1>        -0.331052 
      6 O           2.077081    3.318493    0.754005 O.2       1 <1>        -0.264857 
      7 N          -2.590033   -1.462917   -0.102610 N.am      1 <1>        -0.269469 
      8 C          -3.369346   -0.710682   -1.068884 C.3       1 <1>         0.020285 
      9 C          -3.693920   -1.851747   -2.064108 C.3       1 <1>        -0.028487 
     10 C          -3.798514   -3.115722   -1.173339 C.3       1 <1>         0.025917 
     11 C           2.561552    1.153421   -0.141224 C.3       1 <1>         0.048340 
     12 C           2.203913   -0.014176    0.831169 C.3       1 <1>        -0.013818 
     13 C          -1.663545   -0.824636    0.756631 C.ar      1 <1>         0.062820 
     14 C          -2.782622   -2.789897   -0.118455 C.2       1 <1>         0.219876 
     15 C           0.708499   -0.062366    1.199101 C.ar      1 <1>        -0.018564 
     16 C          -0.235822   -0.753202    0.367014 C.ar      1 <1>         0.039929 
     17 C           4.067190    1.531425    0.010304 C.3       1 <1>        -0.043737 
     18 C          -2.097895   -0.257356    1.963325 C.ar      1 <1>         0.036759 
     19 C           0.209471    0.604171    2.434756 C.ar      1 <1>         0.018646 
     20 C          -1.136660    0.479115    2.813465 C.ar      1 <1>        -0.033346 
     21 C           1.677075    2.361999    0.109899 C.2       1 <1>         0.263007 
     22 C           4.540141    2.577806   -1.034411 C.3       1 <1>        -0.064552 
     23 H          -2.804002    0.113743   -1.530310 H         1 <1>         0.046863 
     24 H          -4.285337   -0.320526   -0.597808 H         1 <1>         0.046863 
     25 H          -4.602338   -1.658796   -2.657845 H         1 <1>         0.028502 
     26 H          -2.840184   -1.968940   -2.752228 H         1 <1>         0.028502 
     27 H          -3.568265   -4.045150   -1.716957 H         1 <1>         0.035894 
     28 H          -4.790067   -3.191699   -0.700047 H         1 <1>         0.035894 
     29 H           2.401799    0.814056   -1.179820 H         1 <1>         0.040494 
     30 H           2.779747    0.084892    1.759774 H         1 <1>         0.032131 
     31 H           2.522782   -0.978416    0.403851 H         1 <1>         0.032131 
     32 H           4.690475    0.625620   -0.094419 H         1 <1>         0.027017 
     33 H           4.236773    1.940322    1.020947 H         1 <1>         0.027017 
     34 H          -1.487960    0.937185    3.730655 H         1 <1>         0.063887 
     35 H           4.464450    2.163864   -2.051365 H         1 <1>         0.022997 
     36 H           3.941772    3.499677   -0.987568 H         1 <1>         0.022997 
     37 H           5.591765    2.844875   -0.846100 H         1 <1>         0.022997 
     38 H           0.183688    1.643836   -0.907766 H         1 <1>         0.220217 
@<TRIPOS>BOND
     1   16    1 1    
     2   18    2 1    
     3   19    3 1    
     4   14    4 2    
     5   21    5 1    
     6    5   38 1    
     7   21    6 2    
     8    7    8 1    
     9   13    7 1    
    10    7   14 1    
    11    8    9 1    
    12    8   23 1    
    13    8   24 1    
    14   10    9 1    
    15    9   25 1    
    16    9   26 1    
    17   14   10 1    
    18   10   27 1    
    19   10   28 1    
    20   12   11 1    
    21   11   17 1    
    22   11   21 1    
    23   11   29 1    
    24   15   12 1    
    25   12   30 1    
    26   12   31 1    
    27   16   13 1    
    28   13   18 2    
    29   15   16 2    
    30   15   19 1    
    31   17   22 1    
    32   17   32 1    
    33   17   33 1    
    34   18   20 1    
    35   19   20 2    
    36   20   34 1    
    37   22   35 1    
    38   22   36 1    
    39   22   37 1    
@<TRIPOS>SUBSTRUCTURE
     1 ****       11 TEMP              0 ****  ****    0 ROOT 
@<TRIPOS>NORMAL
@<TRIPOS>FF_PBC
FORCE_FIELD_SETUP_FEATURE Force Field Setup information
v1.0  0 0.000000 0.000000 0.000000 0.000000 0.000000 0.000000 NONE 0 0 0 0 1 0 0 0 0 0 0 0 0
