@<TRIPOS>MOLECULE
MOL005006
   51    53     1     1     0
SMALL
GASTEIGER


@<TRIPOS>ATOM
      1 O           2.344070    1.698981    0.005927 O.3       1 <1>        -0.342881 
      2 O           0.206670   -1.555848    1.310188 O.2       1 <1>        -0.291241 
      3 C           2.103224   -0.146257    1.604812 C.3       1 <1>         0.073381 
      4 C           0.258625    0.335960   -0.133158 C.ar      1 <1>         0.048443 
      5 C           0.807756   -0.553411    0.957063 C.2       1 <1>         0.175259 
      6 C           1.077698    1.492255   -0.548624 C.ar      1 <1>         0.089148 
      7 C           3.000646    0.532217    0.540575 C.3       1 <1>         0.068177 
      8 C          -0.984627    0.108977   -0.740087 C.ar      1 <1>        -0.042829 
      9 C           0.573403    2.376780   -1.497958 C.ar      1 <1>        -0.000693 
     10 C          -1.531002    1.042142   -1.763817 C.ar      1 <1>        -0.012863 
     11 C          -0.762473    2.190779   -2.115944 C.ar      1 <1>         0.081751 
     12 C          -2.914132    0.658369   -2.317370 C.3       1 <1>        -0.006781 
     13 C          -3.973625    1.348165   -1.489974 C.2       1 <1>        -0.080898 
     14 C          -5.227934    1.626898   -1.883569 C.2       1 <1>        -0.079307 
     15 O          -1.171766    3.196219   -3.009693 O.3       1 <1>        -0.347548 
     16 C          -2.418822    3.403587   -3.689456 C.3       1 <1>         0.043039 
     17 C          -6.180896    2.377844   -0.975139 C.3       1 <1>        -0.044040 
     18 C          -5.795932    1.235932   -3.230351 C.3       1 <1>        -0.044040 
     19 C           2.802122   -1.342525    2.270719 C.ar      1 <1>        -0.004742 
     20 C           3.854229   -2.346946    4.307871 C.ar      1 <1>        -0.031253 
     21 C           3.266921   -1.244443    3.678293 C.ar      1 <1>        -0.052933 
     22 C           4.021309   -3.617785    3.566118 C.ar      1 <1>         0.078267 
     23 C           2.993276   -2.537501    1.558778 C.ar      1 <1>         0.078945 
     24 C           3.613529   -3.706362    2.233350 C.ar      1 <1>        -0.001634 
     25 O           2.591506   -2.614465    0.224689 O.3       1 <1>        -0.359457 
     26 O           4.578745   -4.728788    4.197220 O.3       1 <1>        -0.347830 
     27 C           6.011761   -4.709650    4.296622 C.3       1 <1>         0.043027 
     28 H           1.847420    0.605741    2.367917 H         1 <1>         0.045322 
     29 H           3.944764    0.862079    1.002335 H         1 <1>         0.057526 
     30 H           3.238380   -0.164702   -0.278820 H         1 <1>         0.057526 
     31 H          -1.555594   -0.761197   -0.431377 H         1 <1>         0.062891 
     32 H           1.176317    3.226661   -1.795231 H         1 <1>         0.066946 
     33 H          -3.080755   -0.423214   -2.206384 H         1 <1>         0.035640 
     34 H          -2.961825    0.853743   -3.391137 H         1 <1>         0.035640 
     35 H          -3.668389    1.638892   -0.483969 H         1 <1>         0.057472 
     36 H          -2.379778    4.426441   -4.091408 H         1 <1>         0.052870 
     37 H          -2.532662    2.726351   -4.546749 H         1 <1>         0.052870 
     38 H          -3.280565    3.345702   -3.011706 H         1 <1>         0.052870 
     39 H          -5.706677    2.736451   -0.047533 H         1 <1>         0.027427 
     40 H          -6.578174    3.253912   -1.511505 H         1 <1>         0.027427 
     41 H          -7.019944    1.721253   -0.697802 H         1 <1>         0.027427 
     42 H          -6.815126    0.842663   -3.097012 H         1 <1>         0.027427 
     43 H          -5.216817    0.457351   -3.744523 H         1 <1>         0.027427 
     44 H          -5.841552    2.127619   -3.873529 H         1 <1>         0.027427 
     45 H           4.188380   -2.276527    5.337174 H         1 <1>         0.064338 
     46 H           3.152122   -0.315705    4.226942 H         1 <1>         0.062208 
     47 H           3.748990   -4.640201    1.700335 H         1 <1>         0.066918 
     48 H           2.484423   -3.509645   -0.081870 H         1 <1>         0.217326 
     49 H           6.329385   -5.629782    4.811582 H         1 <1>         0.052870 
     50 H           6.468194   -4.687513    3.293892 H         1 <1>         0.052870 
     51 H           6.359161   -3.840982    4.878466 H         1 <1>         0.052870 
@<TRIPOS>BOND
     1    1    6 1    
     2    7    1 1    
     3    5    2 2    
     4    3    5 1    
     5    3    7 1    
     6    3   19 1    
     7    3   28 1    
     8    5    4 1    
     9    4    6 1    
    10    4    8 2    
    11    6    9 2    
    12    7   29 1    
    13    7   30 1    
    14    8   10 1    
    15    8   31 1    
    16    9   11 1    
    17    9   32 1    
    18   10   11 2    
    19   10   12 1    
    20   11   15 1    
    21   12   13 1    
    22   12   33 1    
    23   12   34 1    
    24   13   14 2    
    25   13   35 1    
    26   14   17 1    
    27   14   18 1    
    28   15   16 1    
    29   16   36 1    
    30   16   37 1    
    31   16   38 1    
    32   17   39 1    
    33   17   40 1    
    34   17   41 1    
    35   18   42 1    
    36   18   43 1    
    37   18   44 1    
    38   19   21 1    
    39   19   23 2    
    40   21   20 2    
    41   20   22 1    
    42   20   45 1    
    43   21   46 1    
    44   22   24 2    
    45   22   26 1    
    46   23   24 1    
    47   23   25 1    
    48   24   47 1    
    49   25   48 1    
    50   26   27 1    
    51   27   49 1    
    52   27   50 1    
    53   27   51 1    
@<TRIPOS>SUBSTRUCTURE
     1 ****        2 TEMP              0 ****  ****    0 ROOT 
@<TRIPOS>NORMAL
@<TRIPOS>FF_PBC
FORCE_FIELD_SETUP_FEATURE Force Field Setup information
v1.0  0 0.000000 0.000000 0.000000 0.000000 0.000000 0.000000 NONE 0 0 0 0 1 0 0 0 0 0 0 0 0
