@<TRIPOS>MOLECULE
MOL006123
   42    42     1     1     0
SMALL
GASTEIGER


@<TRIPOS>ATOM
      1 C           0.002495   -1.103936   -0.920393 C.3       1 <1>        -0.020126 
      2 C           1.435628   -0.903713   -1.359106 C.2       1 <1>        -0.081922 
      3 C           2.334944   -1.896273   -1.410200 C.2       1 <1>        -0.056784 
      4 C           2.040937   -3.341258   -1.075198 C.3       1 <1>         0.081383 
      5 C           0.587512   -3.570438   -0.569867 C.3       1 <1>        -0.020107 
      6 C          -0.388415   -2.575878   -1.245921 C.3       1 <1>        -0.043632 
      7 C           3.061134   -3.862249   -0.029762 C.3       1 <1>        -0.032445 
      8 O           2.273619   -4.113546   -2.266393 O.3       1 <1>        -0.384819 
      9 C          -0.157523   -0.676244    0.579008 C.3       1 <1>        -0.037334 
     10 C           0.125224    0.843036    0.832446 C.3       1 <1>        -0.046480 
     11 C          -0.953429    1.826065    0.293203 C.3       1 <1>        -0.034266 
     12 C          -0.545669    3.266317    0.519783 C.2       1 <1>        -0.085277 
     13 C          -1.385703    4.284687    0.766663 C.2       1 <1>        -0.079617 
     14 C          -0.877372    5.690286    1.007464 C.3       1 <1>        -0.044050 
     15 C          -1.535459   -1.085236    1.174983 C.3       1 <1>        -0.061873 
     16 C          -2.889595    4.119520    0.821213 C.3       1 <1>        -0.044050 
     17 H          -0.653726   -0.475880   -1.542910 H         1 <1>         0.034553 
     18 H           1.756660    0.096729   -1.647894 H         1 <1>         0.057270 
     19 H           3.351595   -1.663833   -1.728740 H         1 <1>         0.059717 
     20 H           0.292784   -4.608232   -0.789849 H         1 <1>         0.029609 
     21 H           0.528362   -3.447793    0.520178 H         1 <1>         0.029609 
     22 H          -1.426959   -2.795271   -0.953202 H         1 <1>         0.027196 
     23 H          -0.336299   -2.722993   -2.337463 H         1 <1>         0.027196 
     24 H           2.986715   -3.289078    0.907005 H         1 <1>         0.026037 
     25 H           2.867862   -4.924846    0.183763 H         1 <1>         0.026037 
     26 H           4.087469   -3.768587   -0.417355 H         1 <1>         0.026037 
     27 H           1.718217   -3.858077   -2.994746 H         1 <1>         0.210579 
     28 H           0.617266   -1.206910    1.158058 H         1 <1>         0.030384 
     29 H           0.202138    1.012233    1.919987 H         1 <1>         0.027097 
     30 H           1.104451    1.105936    0.404481 H         1 <1>         0.027097 
     31 H          -1.092179    1.701027   -0.789983 H         1 <1>         0.030749 
     32 H          -1.904862    1.613515    0.801554 H         1 <1>         0.030749 
     33 H           0.521447    3.482151    0.467609 H         1 <1>         0.057145 
     34 H           0.220291    5.744713    1.081412 H         1 <1>         0.027427 
     35 H          -1.198502    6.339927    0.179303 H         1 <1>         0.027427 
     36 H          -1.300999    6.077628    1.946543 H         1 <1>         0.027427 
     37 H          -1.678371   -0.632068    2.167400 H         1 <1>         0.023259 
     38 H          -1.609256   -2.174677    1.307064 H         1 <1>         0.023259 
     39 H          -2.353710   -0.757029    0.517441 H         1 <1>         0.023259 
     40 H          -3.249850    3.399585    0.072644 H         1 <1>         0.027427 
     41 H          -3.399454    5.074354    0.623541 H         1 <1>         0.027427 
     42 H          -3.178925    3.776035    1.826135 H         1 <1>         0.027427 
@<TRIPOS>BOND
     1    1    2 1    
     2    1    6 1    
     3    1    9 1    
     4    1   17 1    
     5    2    3 2    
     6    2   18 1    
     7    3    4 1    
     8    3   19 1    
     9    4    5 1    
    10    4    7 1    
    11    4    8 1    
    12    5    6 1    
    13    5   20 1    
    14    5   21 1    
    15    6   22 1    
    16    6   23 1    
    17    7   24 1    
    18    7   25 1    
    19    7   26 1    
    20    8   27 1    
    21    9   10 1    
    22    9   15 1    
    23    9   28 1    
    24   10   11 1    
    25   10   29 1    
    26   10   30 1    
    27   11   12 1    
    28   11   31 1    
    29   11   32 1    
    30   12   13 2    
    31   12   33 1    
    32   13   14 1    
    33   13   16 1    
    34   14   34 1    
    35   14   35 1    
    36   14   36 1    
    37   15   37 1    
    38   15   38 1    
    39   15   39 1    
    40   16   40 1    
    41   16   41 1    
    42   16   42 1    
@<TRIPOS>SUBSTRUCTURE
     1 ****        1 TEMP              0 ****  ****    0 ROOT 
@<TRIPOS>NORMAL
@<TRIPOS>FF_PBC
FORCE_FIELD_SETUP_FEATURE Force Field Setup information
v1.0  0 0.000000 0.000000 0.000000 0.000000 0.000000 0.000000 NONE 0 0 0 0 1 0 0 0 0 0 0 0 0
