@<TRIPOS>MOLECULE
MOL001906
   21    21     1     1     0
SMALL
GASTEIGER


@<TRIPOS>ATOM
      1 O           2.204370   -2.554286    0.089941 O.3       1 <1>        -0.357199 
      2 O           2.714791    2.345152    0.044221 O.3       1 <1>        -0.357199 
      3 O          -2.642058   -0.821659   -0.066079 O.3       1 <1>        -0.314756 
      4 O           3.878659   -0.212222    0.105743 O.3       1 <1>        -0.355395 
      5 O          -2.420274    1.407522   -0.069848 O.2       1 <1>        -0.259233 
      6 C          -0.396631    0.185740   -0.010991 C.ar      1 <1>         0.051485 
      7 C           0.414101    1.339186   -0.003514 C.ar      1 <1>        -0.016369 
      8 C           0.239366   -1.154155    0.021114 C.ar      1 <1>        -0.016369 
      9 C           1.632015   -1.281840    0.059515 C.ar      1 <1>         0.105520 
     10 C           1.893540    1.213860    0.036577 C.ar      1 <1>         0.105520 
     11 C           2.488283   -0.069173    0.067655 C.ar      1 <1>         0.132457 
     12 C          -1.905095    0.300091   -0.051426 C.2       1 <1>         0.293719 
     13 C          -4.065518   -0.595273   -0.106259 C.3       1 <1>         0.046196 
     14 H          -0.043385    2.322440   -0.027052 H         1 <1>         0.065181 
     15 H          -0.373085   -2.049220    0.015114 H         1 <1>         0.065181 
     16 H           3.155120   -2.507017    0.117121 H         1 <1>         0.217423 
     17 H           2.236873    3.166710    0.021328 H         1 <1>         0.217423 
     18 H           4.320003    0.632051    0.107536 H         1 <1>         0.217501 
     19 H          -4.562785   -1.576473   -0.114950 H         1 <1>         0.052972 
     20 H          -4.359426   -0.049814   -1.017484 H         1 <1>         0.052972 
     21 H          -4.408964   -0.040720    0.781838 H         1 <1>         0.052972 
@<TRIPOS>BOND
     1    9    1 1    
     2    1   16 1    
     3   10    2 1    
     4    2   17 1    
     5   12    3 1    
     6    3   13 1    
     7   11    4 1    
     8    4   18 1    
     9   12    5 2    
    10    6    7 2    
    11    8    6 1    
    12    6   12 1    
    13    7   10 1    
    14    7   14 1    
    15    9    8 2    
    16    8   15 1    
    17    9   11 1    
    18   10   11 2    
    19   13   19 1    
    20   13   20 1    
    21   13   21 1    
@<TRIPOS>SUBSTRUCTURE
     1 ****        6 TEMP              0 ****  ****    0 ROOT 
@<TRIPOS>NORMAL
@<TRIPOS>FF_PBC
FORCE_FIELD_SETUP_FEATURE Force Field Setup information
v1.0  0 0.000000 0.000000 0.000000 0.000000 0.000000 0.000000 NONE 0 0 0 0 1 0 0 0 0 0 0 0 0
