@<TRIPOS>MOLECULE
MOL000612
   39    41     1     1     0
SMALL
GASTEIGER


@<TRIPOS>ATOM
      1 C           0.984028   -0.033384    0.426012 C.3       1 <1>        -0.019354 
      2 C          -0.342317   -0.851439    0.375253 C.3       1 <1>        -0.029133 
      3 C           0.526886    1.446049    0.344874 C.3       1 <1>        -0.039545 
      4 C           1.665121   -0.374117    1.783947 C.3       1 <1>        -0.037641 
      5 C           1.867822   -0.284015   -0.832578 C.3       1 <1>        -0.028301 
      6 C          -1.430931    0.121887   -0.201864 C.3       1 <1>        -0.025033 
      7 C          -0.529674   -1.438440    1.809167 C.3       1 <1>        -0.048924 
      8 C          -0.574923    1.317265   -0.727879 C.3       1 <1>        -0.014216 
      9 C           0.452674   -0.652463    2.711055 C.3       1 <1>        -0.049653 
     10 C           2.604579   -1.613063    1.716543 C.3       1 <1>        -0.061892 
     11 C           1.231744    0.277350   -2.081602 C.2       1 <1>        -0.084204 
     12 C          -2.249931   -0.562648   -1.338845 C.3       1 <1>        -0.058999 
     13 C          -2.467663    0.641185    0.847284 C.3       1 <1>        -0.058999 
     14 C           0.116973    1.021761   -2.044718 C.2       1 <1>        -0.072897 
     15 C          -0.498777    1.617175   -3.292328 C.3       1 <1>        -0.043506 
     16 H          -0.220523   -1.703337   -0.314881 H         1 <1>         0.031165 
     17 H          -1.143151    2.258100   -0.810920 H         1 <1>         0.035097 
     18 H           1.336086    2.129675    0.039471 H         1 <1>         0.027674 
     19 H           0.119213    1.832936    1.287767 H         1 <1>         0.027674 
     20 H           2.258430    0.478862    2.156194 H         1 <1>         0.030364 
     21 H           2.837430    0.221469   -0.701846 H         1 <1>         0.031293 
     22 H           2.057465   -1.357612   -0.983880 H         1 <1>         0.031293 
     23 H          -0.214863   -2.495582    1.818535 H         1 <1>         0.026837 
     24 H          -1.555149   -1.426653    2.200898 H         1 <1>         0.026837 
     25 H          -0.012680    0.290181    3.035703 H         1 <1>         0.026811 
     26 H           0.726527   -1.211546    3.620641 H         1 <1>         0.026811 
     27 H           2.940791   -1.884738    2.729104 H         1 <1>         0.023259 
     28 H           3.502210   -1.385865    1.121783 H         1 <1>         0.023259 
     29 H           2.106358   -2.486141    1.271683 H         1 <1>         0.023259 
     30 H           1.722771    0.067081   -3.032476 H         1 <1>         0.057180 
     31 H          -2.987018    0.137889   -1.759296 H         1 <1>         0.023525 
     32 H          -2.791927   -1.432402   -0.936725 H         1 <1>         0.023525 
     33 H          -1.606565   -0.922897   -2.155491 H         1 <1>         0.023525 
     34 H          -3.170115   -0.153300    1.139956 H         1 <1>         0.023525 
     35 H          -2.000774    1.034159    1.759127 H         1 <1>         0.023525 
     36 H          -3.072819    1.449900    0.409761 H         1 <1>         0.023525 
     37 H          -1.566559    1.368716   -3.362978 H         1 <1>         0.027445 
     38 H          -0.006206    1.262990   -4.210326 H         1 <1>         0.027445 
     39 H          -0.398490    2.712010   -3.250417 H         1 <1>         0.027445 
@<TRIPOS>BOND
     1    1    2 1    
     2    1    3 1    
     3    1    4 1    
     4    1    5 1    
     5    2    6 1    
     6    2    7 1    
     7    2   16 1    
     8    3    8 1    
     9    3   18 1    
    10    3   19 1    
    11    4    9 1    
    12    4   10 1    
    13    4   20 1    
    14    5   11 1    
    15    5   21 1    
    16    5   22 1    
    17    6    8 1    
    18    6   12 1    
    19    6   13 1    
    20    7    9 1    
    21    7   23 1    
    22    7   24 1    
    23    8   14 1    
    24    8   17 1    
    25    9   25 1    
    26    9   26 1    
    27   10   27 1    
    28   10   28 1    
    29   10   29 1    
    30   11   14 2    
    31   11   30 1    
    32   12   31 1    
    33   12   32 1    
    34   12   33 1    
    35   13   34 1    
    36   13   35 1    
    37   13   36 1    
    38   14   15 1    
    39   15   37 1    
    40   15   38 1    
    41   15   39 1    
@<TRIPOS>SUBSTRUCTURE
     1 ****        1 TEMP              0 ****  ****    0 ROOT 
@<TRIPOS>NORMAL
@<TRIPOS>FF_PBC
FORCE_FIELD_SETUP_FEATURE Force Field Setup information
v1.0  0 0.000000 0.000000 0.000000 0.000000 0.000000 0.000000 NONE 0 0 0 0 1 0 0 0 0 0 0 0 0
