@<TRIPOS>MOLECULE
MOL003969
   14    13     1     1     0
SMALL
GASTEIGER


@<TRIPOS>ATOM
      1 O           1.682656    1.284496   -0.273570 O.3       1 <1>        -0.392962 
      2 O          -1.041206    1.773994    0.491321 O.3       1 <1>        -0.330038 
      3 O          -1.991596    0.221338   -0.818022 O.2       1 <1>        -0.263352 
      4 N          -0.397921   -1.826201    0.156343 N.3       1 <1>        -0.317504 
      5 C          -0.015596   -0.409492    0.364279 C.3       1 <1>         0.114675 
      6 C           1.279567   -0.088383   -0.426152 C.3       1 <1>         0.068605 
      7 C          -1.105615    0.552597   -0.045217 C.2       1 <1>         0.278800 
      8 H           0.189635   -0.256886    1.437240 H         1 <1>         0.058535 
      9 H           2.087952   -0.766946   -0.105078 H         1 <1>         0.057763 
     10 H           1.099006   -0.257165   -1.499353 H         1 <1>         0.057763 
     11 H          -0.662209   -1.998450   -0.878851 H         1 <1>         0.118988 
     12 H          -1.241078   -2.087219    0.782976 H         1 <1>         0.118988 
     13 H           1.864638    1.527064    0.629273 H         1 <1>         0.209479 
     14 H          -1.748033    2.331353    0.184612 H         1 <1>         0.220260 
@<TRIPOS>BOND
     1    6    1 1    
     2    1   13 1    
     3    7    2 1    
     4    2   14 1    
     5    7    3 2    
     6    5    4 1    
     7    4   11 1    
     8    4   12 1    
     9    5    6 1    
    10    5    7 1    
    11    5    8 1    
    12    6    9 1    
    13    6   10 1    
@<TRIPOS>SUBSTRUCTURE
     1 ****        4 TEMP              0 ****  ****    0 ROOT 
@<TRIPOS>NORMAL
@<TRIPOS>FF_PBC
FORCE_FIELD_SETUP_FEATURE Force Field Setup information
v1.0  0 0.000000 0.000000 0.000000 0.000000 0.000000 0.000000 NONE 0 0 0 0 1 0 0 0 0 0 0 0 0
