@<TRIPOS>MOLECULE
MOL007148
   33    34     1     1     0
SMALL
GASTEIGER


@<TRIPOS>ATOM
      1 C          -0.652005    1.110429   -0.215828 C.3       1 <1>         0.048276 
      2 C          -0.645441   -0.433735   -0.158353 C.3       1 <1>         0.027824 
      3 C           0.470383    1.621325   -1.137859 C.3       1 <1>         0.167314 
      4 C          -0.613936    1.601175    1.253714 C.3       1 <1>         0.073726 
      5 C           0.720806   -1.006069   -0.459134 C.2       1 <1>         0.052723 
      6 C          -1.141190   -0.782732    1.275520 C.3       1 <1>         0.065378 
      7 O           0.180899    1.179740   -2.473739 O.3       1 <1>        -0.366272 
      8 O           1.757518    1.084848   -0.794349 O.3       1 <1>        -0.322197 
      9 C          -1.558545    0.566918    1.912623 C.3       1 <1>         0.002884 
     10 C           0.800528    1.583518    1.899333 C.3       1 <1>        -0.035545 
     11 O          -1.155542    2.931181    1.321094 O.3       1 <1>        -0.388295 
     12 C           1.803147   -0.253130   -0.708485 C.2       1 <1>         0.052326 
     13 C           0.875408   -2.474828   -0.459800 C.2       1 <1>         0.291797 
     14 O          -2.244466   -1.703352    1.216674 O.3       1 <1>        -0.391077 
     15 O           0.952912   -3.185590   -1.598105 O.3       1 <1>        -0.314939 
     16 O           0.937768   -3.064716    0.605488 O.2       1 <1>        -0.259506 
     17 C           0.827863   -2.432248   -2.822304 C.3       1 <1>         0.046187 
     18 H          -1.613392    1.452812   -0.639493 H         1 <1>         0.038448 
     19 H          -1.343426   -0.834254   -0.912206 H         1 <1>         0.038161 
     20 H           0.508711    2.724117   -1.090090 H         1 <1>         0.091524 
     21 H          -0.320224   -1.220104    1.870850 H         1 <1>         0.060018 
     22 H           0.859722    1.449244   -3.084096 H         1 <1>         0.212500 
     23 H          -2.596457    0.794425    1.618649 H         1 <1>         0.031802 
     24 H          -1.502449    0.562520    3.012684 H         1 <1>         0.031802 
     25 H           0.723533    1.835484    2.967691 H         1 <1>         0.025733 
     26 H           1.437907    2.341494    1.420650 H         1 <1>         0.025733 
     27 H           1.291743    0.604828    1.816594 H         1 <1>         0.025733 
     28 H          -1.253615    3.243256    2.214825 H         1 <1>         0.210163 
     29 H           2.780461   -0.718982   -0.839964 H         1 <1>         0.089058 
     30 H          -2.586004   -1.927084    2.077061 H         1 <1>         0.209803 
     31 H           0.866320   -3.155913   -3.649900 H         1 <1>         0.052972 
     32 H           1.655858   -1.720937   -2.961426 H         1 <1>         0.052972 
     33 H          -0.133443   -1.898892   -2.883844 H         1 <1>         0.052972 
@<TRIPOS>BOND
     1    1    2 1    
     2    1    3 1    
     3    1    4 1    
     4    1   18 1    
     5    2    5 1    
     6    2    6 1    
     7    2   19 1    
     8    3    7 1    
     9    3    8 1    
    10    3   20 1    
    11    4    9 1    
    12    4   10 1    
    13    4   11 1    
    14    5   12 2    
    15    5   13 1    
    16    6    9 1    
    17    6   14 1    
    18    6   21 1    
    19    7   22 1    
    20    8   12 1    
    21    9   23 1    
    22    9   24 1    
    23   10   25 1    
    24   10   26 1    
    25   10   27 1    
    26   11   28 1    
    27   12   29 1    
    28   13   15 1    
    29   13   16 2    
    30   14   30 1    
    31   15   17 1    
    32   17   31 1    
    33   17   32 1    
    34   17   33 1    
@<TRIPOS>SUBSTRUCTURE
     1 ****        1 TEMP              0 ****  ****    0 ROOT 
@<TRIPOS>NORMAL
@<TRIPOS>FF_PBC
FORCE_FIELD_SETUP_FEATURE Force Field Setup information
v1.0  0 0.000000 0.000000 0.000000 0.000000 0.000000 0.000000 NONE 0 0 0 0 1 0 0 0 0 0 0 0 0
