@<TRIPOS>MOLECULE
MOL004693
  123   129     1     1     0
SMALL
GASTEIGER


@<TRIPOS>ATOM
      1 O          -3.323679    1.583687   -0.084307 O.3       1 <1>        -0.344807 
      2 O           6.228208   -2.791747   -4.787774 O.3       1 <1>        -0.390817 
      3 O           0.011652    3.818700    0.677057 O.3       1 <1>        -0.394374 
      4 O           5.271416   -5.102183   -5.151183 O.3       1 <1>        -0.394059 
      5 O          -5.505454    1.915632    0.337074 O.3       1 <1>        -0.343072 
      6 O          -4.071031   -0.703518    2.296369 O.3       1 <1>        -0.384094 
      7 O          -5.162336    2.759101    2.848737 O.3       1 <1>        -0.340053 
      8 O          -7.830855    1.186359    3.099678 O.3       1 <1>        -0.386569 
      9 O          -5.912774    4.883818    3.273590 O.3       1 <1>        -0.340520 
     10 O          -6.026673    3.834520    6.258963 O.3       1 <1>        -0.384104 
     11 O          -2.893776    4.384519    6.055004 O.3       1 <1>        -0.386401 
     12 O          -2.399830    5.924204    3.717548 O.3       1 <1>        -0.386488 
     13 O          -3.059766    5.811877    1.052326 O.3       1 <1>        -0.392366 
     14 C           3.032486   -0.179216   -1.917532 C.3       1 <1>        -0.015850 
     15 C           0.330626   -0.098833   -1.817586 C.3       1 <1>        -0.021728 
     16 C           1.663581   -0.957861   -1.776448 C.3       1 <1>        -0.010741 
     17 C           0.380221    0.958420   -0.654427 C.3       1 <1>        -0.025206 
     18 C           4.243192   -1.247567   -1.903141 C.3       1 <1>         0.001211 
     19 C           2.991341    0.834362   -0.712271 C.3       1 <1>        -0.045983 
     20 C          -0.938053    1.795589   -0.419640 C.3       1 <1>         0.020641 
     21 C           1.723288    1.754295   -0.647187 C.3       1 <1>        -0.048508 
     22 C          -0.915370   -1.024761   -1.579287 C.3       1 <1>        -0.044437 
     23 C           3.853400   -2.597833   -1.314667 C.2       1 <1>        -0.041177 
     24 C           4.824695   -1.569281   -3.320835 C.3       1 <1>        -0.016023 
     25 C          -2.120009    0.788851   -0.197101 C.3       1 <1>         0.069511 
     26 C           5.177839   -4.077742   -2.922244 C.3       1 <1>         0.041279 
     27 C          -2.250405   -0.257858   -1.338855 C.3       1 <1>        -0.025376 
     28 C           3.223082    0.734242   -3.183466 C.3       1 <1>        -0.058207 
     29 C           1.813262   -1.729682   -0.465290 C.2       1 <1>        -0.079573 
     30 C           0.141616    0.516733   -3.250241 C.3       1 <1>        -0.058735 
     31 C           4.302122   -3.812317   -1.700712 C.2       1 <1>        -0.054572 
     32 C           5.830832   -2.746705   -3.403027 C.3       1 <1>         0.067441 
     33 C           5.419506   -0.751825   -0.999720 C.3       1 <1>        -0.054936 
     34 C           2.884113   -2.486870   -0.224398 C.2       1 <1>        -0.061680 
     35 C          -0.818580    2.658939    0.886231 C.3       1 <1>         0.052209 
     36 C          -1.299241    2.811684   -1.551935 C.3       1 <1>        -0.054821 
     37 C           6.269215   -5.127688   -2.511211 C.3       1 <1>        -0.038670 
     38 C           4.000103   -5.070089   -0.903539 C.3       1 <1>        -0.025318 
     39 C           5.312192   -5.454133   -0.143567 C.3       1 <1>        -0.031141 
     40 C           6.568660   -5.055535   -0.990591 C.3       1 <1>        -0.046636 
     41 C           4.359571   -4.688545   -4.111352 C.3       1 <1>         0.055890 
     42 C           5.306058   -6.987967    0.139077 C.3       1 <1>        -0.059522 
     43 C           5.384894   -4.710379    1.223990 C.3       1 <1>        -0.059522 
     44 C          -4.457874    0.953183    0.545563 C.3       1 <1>         0.188127 
     45 C          -4.218640    0.715427    2.067861 C.3       1 <1>         0.134483 
     46 C          -5.375219    1.330311    2.903504 C.3       1 <1>         0.120486 
     47 C          -6.798762    1.492469    0.817961 C.3       1 <1>         0.087317 
     48 C          -6.707483    0.879457    2.250555 C.3       1 <1>         0.109842 
     49 C          -7.693565    2.756759    0.748622 C.3       1 <1>        -0.036060 
     50 C          -5.841458    3.561054    3.832742 C.3       1 <1>         0.188437 
     51 C          -5.079048    3.618957    5.190654 C.3       1 <1>         0.134124 
     52 C          -3.989802    4.733990    5.183190 C.3       1 <1>         0.114061 
     53 C          -4.633071    5.403966    2.848937 C.3       1 <1>         0.113005 
     54 C          -3.452261    4.938900    3.745814 C.3       1 <1>         0.111896 
     55 C          -4.314926    5.164473    1.348714 C.3       1 <1>         0.073015 
     56 H           6.746584   -3.559295   -5.010186 H         1 <1>         0.209815 
     57 H           0.091406    4.375641    1.446453 H         1 <1>         0.209420 
     58 H           4.837170   -5.466371   -5.917489 H         1 <1>         0.209434 
     59 H          -3.860916   -0.927680    3.198111 H         1 <1>         0.210111 
     60 H          -8.657194    0.843786    2.772300 H         1 <1>         0.210002 
     61 H          -5.632059    3.841734    7.125171 H         1 <1>         0.210110 
     62 H          -3.142641    4.318016    6.970997 H         1 <1>         0.210005 
     63 H          -2.086747    6.076837    2.828008 H         1 <1>         0.210004 
     64 H          -2.800906    5.717551    0.139398 H         1 <1>         0.209508 
     65 H           1.609351   -1.711108   -2.579253 H         1 <1>         0.035395 
     66 H           0.449654    0.386272    0.278679 H         1 <1>         0.031301 
     67 H           3.870682    1.498136   -0.742929 H         1 <1>         0.027105 
     68 H           3.025833    0.306984    0.253283 H         1 <1>         0.027105 
     69 H           1.820116    2.305689    0.302005 H         1 <1>         0.026847 
     70 H           1.715212    2.523623   -1.426754 H         1 <1>         0.026847 
     71 H          -1.034003   -1.708582   -2.436296 H         1 <1>         0.027158 
     72 H          -0.801602   -1.662720   -0.694708 H         1 <1>         0.027158 
     73 H           5.374752   -0.714390   -3.741058 H         1 <1>         0.029895 
     74 H           3.995168   -1.811890   -3.995230 H         1 <1>         0.029895 
     75 H          -1.914698    0.232398    0.732227 H         1 <1>         0.060308 
     76 H          -3.006379   -1.011847   -1.066119 H         1 <1>         0.029048 
     77 H          -2.637983    0.233080   -2.240109 H         1 <1>         0.029048 
     78 H           4.243137    1.143822   -3.185912 H         1 <1>         0.023552 
     79 H           3.050397    0.212866   -4.132591 H         1 <1>         0.023552 
     80 H           2.609094    1.629534   -3.226800 H         1 <1>         0.023552 
     81 H           1.119586   -1.723059    0.372480 H         1 <1>         0.057525 
     82 H           0.425540    1.572019   -3.299091 H         1 <1>         0.023534 
     83 H          -0.886094    0.470573   -3.627214 H         1 <1>         0.023534 
     84 H           0.714958   -0.038242   -4.004105 H         1 <1>         0.023534 
     85 H           6.741581   -2.533580   -2.823754 H         1 <1>         0.060283 
     86 H           5.105505   -0.588357    0.039249 H         1 <1>         0.023839 
     87 H           6.234066   -1.481871   -0.925182 H         1 <1>         0.023839 
     88 H           5.842430    0.184277   -1.393119 H         1 <1>         0.023839 
     89 H           3.006686   -2.987578    0.736602 H         1 <1>         0.061744 
     90 H          -1.813247    3.031057    1.183516 H         1 <1>         0.056334 
     91 H          -0.429287    2.057131    1.724426 H         1 <1>         0.056334 
     92 H          -0.439111    3.444987   -1.808849 H         1 <1>         0.023667 
     93 H          -1.666024    2.341287   -2.467966 H         1 <1>         0.023667 
     94 H          -2.105629    3.483382   -1.219985 H         1 <1>         0.023667 
     95 H           5.938815   -6.155644   -2.727746 H         1 <1>         0.027536 
     96 H           7.198616   -4.974034   -3.082321 H         1 <1>         0.027536 
     97 H           3.151398   -5.018979   -0.210412 H         1 <1>         0.031555 
     98 H           3.725579   -5.880352   -1.588841 H         1 <1>         0.031555 
     99 H           7.423029   -5.703840   -0.736577 H         1 <1>         0.027081 
    100 H           6.877789   -4.020610   -0.775694 H         1 <1>         0.027081 
    101 H           3.792894   -5.580742   -3.808016 H         1 <1>         0.056653 
    102 H           3.625048   -3.973647   -4.508614 H         1 <1>         0.056653 
    103 H           5.326762   -7.568039   -0.795511 H         1 <1>         0.023508 
    104 H           6.181743   -7.280708    0.738683 H         1 <1>         0.023508 
    105 H           4.399703   -7.268225    0.697878 H         1 <1>         0.023508 
    106 H           4.536651   -4.986422    1.868961 H         1 <1>         0.023508 
    107 H           6.316155   -4.969679    1.750892 H         1 <1>         0.023508 
    108 H           5.369045   -3.619556    1.079667 H         1 <1>         0.023508 
    109 H          -4.753647    0.022595    0.037828 H         1 <1>         0.093748 
    110 H          -3.299659    1.239338    2.380884 H         1 <1>         0.067105 
    111 H          -5.315262    0.940751    3.931605 H         1 <1>         0.065136 
    112 H          -7.221385    0.745987    0.122661 H         1 <1>         0.062075 
    113 H          -6.649581   -0.222377    2.171275 H         1 <1>         0.064594 
    114 H          -7.316387    3.530608    1.431168 H         1 <1>         0.025536 
    115 H          -7.676239    3.163728   -0.274377 H         1 <1>         0.025536 
    116 H          -8.738058    2.530194    1.008563 H         1 <1>         0.025536 
    117 H          -6.877681    3.230449    4.001093 H         1 <1>         0.093753 
    118 H          -4.578390    2.650716    5.347010 H         1 <1>         0.067095 
    119 H          -4.435220    5.693452    5.499188 H         1 <1>         0.064758 
    120 H          -4.736684    6.494659    2.973220 H         1 <1>         0.064668 
    121 H          -3.046121    3.970879    3.406363 H         1 <1>         0.064673 
    122 H          -4.236535    4.091298    1.118614 H         1 <1>         0.058370 
    123 H          -5.132850    5.585768    0.740229 H         1 <1>         0.058370 
@<TRIPOS>BOND
     1    1   25 1    
     2   44    1 1    
     3   32    2 1    
     4    2   56 1    
     5   35    3 1    
     6    3   57 1    
     7   41    4 1    
     8    4   58 1    
     9   44    5 1    
    10   47    5 1    
    11   45    6 1    
    12    6   59 1    
    13    7   46 1    
    14   50    7 1    
    15   48    8 1    
    16    8   60 1    
    17    9   50 1    
    18   53    9 1    
    19   51   10 1    
    20   10   61 1    
    21   52   11 1    
    22   11   62 1    
    23   54   12 1    
    24   12   63 1    
    25   55   13 1    
    26   13   64 1    
    27   16   14 1    
    28   14   18 1    
    29   19   14 1    
    30   14   28 1    
    31   15   16 1    
    32   17   15 1    
    33   22   15 1    
    34   15   30 1    
    35   16   29 1    
    36   16   65 1    
    37   20   17 1    
    38   17   21 1    
    39   17   66 1    
    40   18   23 1    
    41   18   24 1    
    42   18   33 1    
    43   21   19 1    
    44   19   67 1    
    45   19   68 1    
    46   25   20 1    
    47   20   35 1    
    48   20   36 1    
    49   21   69 1    
    50   21   70 1    
    51   27   22 1    
    52   22   71 1    
    53   22   72 1    
    54   23   31 2    
    55   34   23 1    
    56   24   32 1    
    57   24   73 1    
    58   24   74 1    
    59   25   27 1    
    60   25   75 1    
    61   31   26 1    
    62   32   26 1    
    63   26   37 1    
    64   26   41 1    
    65   27   76 1    
    66   27   77 1    
    67   28   78 1    
    68   28   79 1    
    69   28   80 1    
    70   29   34 2    
    71   29   81 1    
    72   30   82 1    
    73   30   83 1    
    74   30   84 1    
    75   31   38 1    
    76   32   85 1    
    77   33   86 1    
    78   33   87 1    
    79   33   88 1    
    80   34   89 1    
    81   35   90 1    
    82   35   91 1    
    83   36   92 1    
    84   36   93 1    
    85   36   94 1    
    86   37   40 1    
    87   37   95 1    
    88   37   96 1    
    89   38   39 1    
    90   38   97 1    
    91   38   98 1    
    92   39   40 1    
    93   39   42 1    
    94   39   43 1    
    95   40   99 1    
    96   40  100 1    
    97   41  101 1    
    98   41  102 1    
    99   42  103 1    
   100   42  104 1    
   101   42  105 1    
   102   43  106 1    
   103   43  107 1    
   104   43  108 1    
   105   45   44 1    
   106   44  109 1    
   107   46   45 1    
   108   45  110 1    
   109   46   48 1    
   110   46  111 1    
   111   48   47 1    
   112   47   49 1    
   113   47  112 1    
   114   48  113 1    
   115   49  114 1    
   116   49  115 1    
   117   49  116 1    
   118   50   51 1    
   119   50  117 1    
   120   52   51 1    
   121   51  118 1    
   122   54   52 1    
   123   52  119 1    
   124   53   54 1    
   125   53   55 1    
   126   53  120 1    
   127   54  121 1    
   128   55  122 1    
   129   55  123 1    
@<TRIPOS>SUBSTRUCTURE
     1 ****       14 TEMP              0 ****  ****    0 ROOT 
@<TRIPOS>NORMAL
@<TRIPOS>FF_PBC
FORCE_FIELD_SETUP_FEATURE Force Field Setup information
v1.0  0 0.000000 0.000000 0.000000 0.000000 0.000000 0.000000 NONE 0 0 0 0 1 0 0 0 0 0 0 0 0
