@<TRIPOS>MOLECULE
MOL012359
   20    20     1     1     0
SMALL
GASTEIGER


@<TRIPOS>ATOM
      1 C           1.771305   -0.420892   -0.344560 C.3       1 <1>        -0.014117 
      2 C           0.507916   -1.124053    0.221699 C.3       1 <1>        -0.029833 
      3 C          -0.700668   -0.221476    0.217552 C.2       1 <1>        -0.087598 
      4 C          -0.624885    1.107958    0.073159 C.2       1 <1>        -0.087912 
      5 C           0.678620    1.847536   -0.095042 C.3       1 <1>        -0.034430 
      6 C           1.898039    0.979342    0.307313 C.3       1 <1>        -0.044412 
      7 C           3.043745   -1.276182   -0.101640 C.3       1 <1>         0.047309 
      8 O           4.168321   -0.632136   -0.727600 O.3       1 <1>        -0.394724 
      9 H           1.652613   -0.289283   -1.434243 H         1 <1>         0.032587 
     10 H           0.679762   -1.435163    1.264081 H         1 <1>         0.031070 
     11 H           0.295373   -2.025046   -0.376378 H         1 <1>         0.031070 
     12 H          -1.681444   -0.683992    0.344334 H         1 <1>         0.056905 
     13 H          -1.546094    1.693938    0.070360 H         1 <1>         0.056896 
     14 H           0.760489    2.142076   -1.153749 H         1 <1>         0.030741 
     15 H           0.669195    2.764052    0.517440 H         1 <1>         0.030741 
     16 H           2.826272    1.479939   -0.014493 H         1 <1>         0.027167 
     17 H           1.929847    0.867717    1.403682 H         1 <1>         0.027167 
     18 H           3.218552   -1.383386    0.982304 H         1 <1>         0.055982 
     19 H           2.897761   -2.279423   -0.537881 H         1 <1>         0.055982 
     20 H           4.984579   -1.110626   -0.616341 H         1 <1>         0.209407 
@<TRIPOS>BOND
     1    1    2 1    
     2    1    6 1    
     3    1    7 1    
     4    1    9 1    
     5    2    3 1    
     6    2   10 1    
     7    2   11 1    
     8    3    4 2    
     9    3   12 1    
    10    4    5 1    
    11    4   13 1    
    12    5    6 1    
    13    5   14 1    
    14    5   15 1    
    15    6   16 1    
    16    6   17 1    
    17    7    8 1    
    18    7   18 1    
    19    7   19 1    
    20    8   20 1    
@<TRIPOS>SUBSTRUCTURE
     1 ****        1 TEMP              0 ****  ****    0 ROOT 
@<TRIPOS>NORMAL
@<TRIPOS>FF_PBC
FORCE_FIELD_SETUP_FEATURE Force Field Setup information
v1.0  0 0.000000 0.000000 0.000000 0.000000 0.000000 0.000000 NONE 0 0 0 0 1 0 0 0 0 0 0 0 0
