@<TRIPOS>MOLECULE
MOL000170
   39    40     1     1     0
SMALL
GASTEIGER


@<TRIPOS>ATOM
      1 C          -1.219603   -0.231519    0.263538 C.2       1 <1>        -0.063215 
      2 C          -0.643240   -1.424493    0.436037 C.2       1 <1>        -0.066880 
      3 C          -0.608584    1.029551   -0.309854 C.3       1 <1>        -0.009771 
      4 C          -2.666837   -0.243722    0.690124 C.3       1 <1>        -0.021882 
      5 C           0.764867   -1.842399    0.081707 C.3       1 <1>        -0.022172 
      6 C          -1.578056   -2.435165    1.037486 C.3       1 <1>        -0.030687 
      7 C           0.903209    1.111113   -0.190893 C.2       1 <1>        -0.066796 
      8 C          -2.667827   -1.494585    1.610628 C.3       1 <1>        -0.043037 
      9 C          -3.211106    1.008933    1.425913 C.3       1 <1>        -0.058674 
     10 C           1.832196   -1.018670    0.861041 C.3       1 <1>        -0.043047 
     11 C           0.948145   -1.814950   -1.462485 C.3       1 <1>        -0.058684 
     12 C           1.463864    0.477116    1.064554 C.3       1 <1>        -0.030676 
     13 C           1.668641    1.713254   -1.123933 C.2       1 <1>        -0.076158 
     14 C           1.062282    2.426620   -2.316195 C.3       1 <1>        -0.043786 
     15 C           3.184142    1.747588   -1.085427 C.3       1 <1>        -0.043786 
     16 H          -0.976619    1.076324   -1.344192 H         1 <1>         0.035524 
     17 H          -0.973683    1.912096    0.232459 H         1 <1>         0.035524 
     18 H          -3.276924   -0.440290   -0.207886 H         1 <1>         0.034319 
     19 H           0.906808   -2.901190    0.363743 H         1 <1>         0.034310 
     20 H          -1.116512   -3.055097    1.823182 H         1 <1>         0.031033 
     21 H          -1.972792   -3.079197    0.235865 H         1 <1>         0.031033 
     22 H          -3.656240   -1.977183    1.678901 H         1 <1>         0.027391 
     23 H          -2.357143   -1.190773    2.624905 H         1 <1>         0.027391 
     24 H          -4.205523    0.788730    1.843943 H         1 <1>         0.023544 
     25 H          -3.313636    1.856904    0.731660 H         1 <1>         0.023544 
     26 H          -2.537530    1.297085    2.247652 H         1 <1>         0.023544 
     27 H           1.964513   -1.455933    1.866098 H         1 <1>         0.027391 
     28 H           2.797241   -1.112259    0.339975 H         1 <1>         0.027391 
     29 H           1.948231   -2.183993   -1.738768 H         1 <1>         0.023544 
     30 H           0.826436   -0.810678   -1.885755 H         1 <1>         0.023544 
     31 H           0.199011   -2.470490   -1.934279 H         1 <1>         0.023544 
     32 H           2.330802    1.034562    1.450731 H         1 <1>         0.031034 
     33 H           0.704733    0.553474    1.860806 H         1 <1>         0.031034 
     34 H           0.805965    1.690981   -3.093220 H         1 <1>         0.027435 
     35 H           0.163446    2.996718   -2.038281 H         1 <1>         0.027435 
     36 H           1.769284    3.151085   -2.748770 H         1 <1>         0.027435 
     37 H           3.650208    1.014963   -0.416151 H         1 <1>         0.027435 
     38 H           3.576947    1.541424   -2.092813 H         1 <1>         0.027435 
     39 H           3.510281    2.753563   -0.781843 H         1 <1>         0.027435 
@<TRIPOS>BOND
     1    1    2 2    
     2    1    3 1    
     3    1    4 1    
     4    2    5 1    
     5    2    6 1    
     6    3    7 1    
     7    3   16 1    
     8    3   17 1    
     9    4    8 1    
    10    4    9 1    
    11    4   18 1    
    12    5   10 1    
    13    5   11 1    
    14    5   19 1    
    15    6    8 1    
    16    6   20 1    
    17    6   21 1    
    18    7   12 1    
    19    7   13 2    
    20    8   22 1    
    21    8   23 1    
    22    9   24 1    
    23    9   25 1    
    24    9   26 1    
    25   10   12 1    
    26   10   27 1    
    27   10   28 1    
    28   11   29 1    
    29   11   30 1    
    30   11   31 1    
    31   12   32 1    
    32   12   33 1    
    33   13   14 1    
    34   13   15 1    
    35   14   34 1    
    36   14   35 1    
    37   14   36 1    
    38   15   37 1    
    39   15   38 1    
    40   15   39 1    
@<TRIPOS>SUBSTRUCTURE
     1 ****        1 TEMP              0 ****  ****    0 ROOT 
@<TRIPOS>NORMAL
@<TRIPOS>FF_PBC
FORCE_FIELD_SETUP_FEATURE Force Field Setup information
v1.0  0 0.000000 0.000000 0.000000 0.000000 0.000000 0.000000 NONE 0 0 0 0 1 0 0 0 0 0 0 0 0
