@<TRIPOS>MOLECULE
MOL002153
   40    42     1     1     0
SMALL
GASTEIGER


@<TRIPOS>ATOM
      1 C          -2.152161    1.480919   -1.021938 C.3       1 <1>        -0.043571 
      2 C          -2.535965    0.064763   -1.535357 C.3       1 <1>        -0.023425 
      3 C          -1.200140   -0.718065   -1.617676 C.3       1 <1>         0.066960 
      4 C          -0.473220   -0.173327   -0.354747 C.3       1 <1>        -0.002313 
      5 C          -0.728659    1.351361   -0.407855 C.3       1 <1>        -0.014361 
      6 C           1.041900   -0.484251   -0.273166 C.3       1 <1>        -0.026317 
      7 C           1.832395    0.092696    0.937581 C.3       1 <1>        -0.031638 
      8 C           1.204547    0.796646    2.183150 C.3       1 <1>        -0.045743 
      9 C          -0.256648    1.335382    2.148117 C.3       1 <1>        -0.031446 
     10 C          -0.562433    2.117595    0.887821 C.2       1 <1>        -0.073151 
     11 C          -0.686437    3.452312    0.892283 C.2       1 <1>        -0.099174 
     12 C           1.630329   -1.442935    0.792550 C.3       1 <1>        -0.028316 
     13 C           2.830916   -2.271384    0.260407 C.3       1 <1>        -0.059279 
     14 C           0.669265   -2.221835    1.732281 C.3       1 <1>        -0.059279 
     15 O          -1.460418   -2.127788   -1.502211 O.3       1 <1>        -0.388544 
     16 C          -0.497400   -0.445173   -2.979531 C.3       1 <1>        -0.035789 
     17 H           2.890596    0.344390    0.750056 H         1 <1>         0.030906 
     18 H           1.633155   -0.284038   -1.178840 H         1 <1>         0.031262 
     19 H           0.009417    1.782347   -1.105012 H         1 <1>         0.034919 
     20 H          -1.032095   -0.638205    0.462598 H         1 <1>         0.033705 
     21 H          -2.884760    1.823956   -0.272315 H         1 <1>         0.027196 
     22 H          -2.147202    2.209172   -1.850559 H         1 <1>         0.027196 
     23 H          -3.176345   -0.432998   -0.787097 H         1 <1>         0.029301 
     24 H          -3.089246    0.085397   -2.487792 H         1 <1>         0.029301 
     25 H           1.826849    1.698328    2.317260 H         1 <1>         0.027121 
     26 H           1.366863    0.175873    3.078471 H         1 <1>         0.027121 
     27 H          -1.008711    0.555389    2.315904 H         1 <1>         0.031008 
     28 H          -0.368996    1.998576    3.022695 H         1 <1>         0.031008 
     29 H          -0.908055    3.993513   -0.027305 H         1 <1>         0.053449 
     30 H          -0.571650    4.043144    1.800316 H         1 <1>         0.053449 
     31 H           3.449402   -2.594571    1.110918 H         1 <1>         0.023516 
     32 H           2.446934   -3.162229   -0.258830 H         1 <1>         0.023516 
     33 H           3.470941   -1.711322   -0.438328 H         1 <1>         0.023516 
     34 H           0.115017   -2.961512    1.135767 H         1 <1>         0.023516 
     35 H           1.274844   -2.761210    2.475540 H         1 <1>         0.023516 
     36 H          -0.049662   -1.610603    2.287854 H         1 <1>         0.023516 
     37 H          -0.658725   -2.638633   -1.464814 H         1 <1>         0.210159 
     38 H          -1.153536   -0.791090   -3.792540 H         1 <1>         0.025730 
     39 H           0.443192   -1.008019   -3.060910 H         1 <1>         0.025730 
     40 H          -0.289891    0.621391   -3.141715 H         1 <1>         0.025730 
@<TRIPOS>BOND
     1    1    2 1    
     2    1    5 1    
     3    1   21 1    
     4    1   22 1    
     5    2    3 1    
     6    2   23 1    
     7    2   24 1    
     8    3    4 1    
     9    3   15 1    
    10    3   16 1    
    11    4    5 1    
    12    4    6 1    
    13    4   20 1    
    14    5   10 1    
    15    5   19 1    
    16    6    7 1    
    17    6   12 1    
    18    6   18 1    
    19    7    8 1    
    20    7   12 1    
    21    7   17 1    
    22    8    9 1    
    23    8   25 1    
    24    8   26 1    
    25    9   10 1    
    26    9   27 1    
    27    9   28 1    
    28   10   11 2    
    29   11   29 1    
    30   11   30 1    
    31   12   13 1    
    32   12   14 1    
    33   13   31 1    
    34   13   32 1    
    35   13   33 1    
    36   14   34 1    
    37   14   35 1    
    38   14   36 1    
    39   15   37 1    
    40   16   38 1    
    41   16   39 1    
    42   16   40 1    
@<TRIPOS>SUBSTRUCTURE
     1 ****        1 TEMP              0 ****  ****    0 ROOT 
@<TRIPOS>NORMAL
@<TRIPOS>FF_PBC
FORCE_FIELD_SETUP_FEATURE Force Field Setup information
v1.0  0 0.000000 0.000000 0.000000 0.000000 0.000000 0.000000 NONE 0 0 0 0 1 0 0 0 0 0 0 0 0
