@<TRIPOS>MOLECULE
MOL004721
   26    27     1     1     0
SMALL
GASTEIGER


@<TRIPOS>ATOM
      1 C           0.592021   -0.637199    0.715249 C.3       1 <1>        -0.027834 
      2 C          -0.443952    0.698001   -1.049899 C.3       1 <1>        -0.013001 
      3 C          -0.608076    0.264956    1.143056 C.3       1 <1>        -0.016937 
      4 C           0.724356   -0.296757   -0.807068 C.3       1 <1>        -0.038440 
      5 C          -0.447990    1.521552    0.255073 C.3       1 <1>        -0.037379 
      6 C          -1.836715   -0.293439    0.473462 C.2       1 <1>        -0.083785 
      7 C          -1.731633   -0.051328   -0.833333 C.2       1 <1>        -0.081692 
      8 C           1.879617   -0.263475    1.510242 C.3       1 <1>        -0.059251 
      9 C           0.295110   -2.149165    0.949554 C.3       1 <1>        -0.059251 
     10 C          -0.363733    1.526226   -2.352968 C.3       1 <1>        -0.056061 
     11 H          -0.718966    0.459307    2.221285 H         1 <1>         0.034839 
     12 H           0.629748   -1.174922   -1.464998 H         1 <1>         0.027883 
     13 H           1.683067    0.198380   -1.027912 H         1 <1>         0.027883 
     14 H          -1.299782    2.220283    0.329503 H         1 <1>         0.027928 
     15 H           0.481792    2.087943    0.412058 H         1 <1>         0.027928 
     16 H          -2.654551   -0.817186    0.967684 H         1 <1>         0.057208 
     17 H          -2.442888   -0.345200   -1.604399 H         1 <1>         0.057453 
     18 H           2.729553   -0.867373    1.157055 H         1 <1>         0.023517 
     19 H           1.732411   -0.465555    2.582211 H         1 <1>         0.023517 
     20 H           2.152247    0.795139    1.400277 H         1 <1>         0.023517 
     21 H           1.171841   -2.754136    0.672192 H         1 <1>         0.023517 
     22 H           0.067878   -2.327478    2.011646 H         1 <1>         0.023517 
     23 H          -0.555205   -2.505876    0.349548 H         1 <1>         0.023517 
     24 H          -1.222602    2.211332   -2.416318 H         1 <1>         0.023803 
     25 H           0.565208    2.115681   -2.372168 H         1 <1>         0.023803 
     26 H          -0.378954    0.850290   -3.221028 H         1 <1>         0.023803 
@<TRIPOS>BOND
     1    1    3 1    
     2    1    4 1    
     3    1    8 1    
     4    1    9 1    
     5    4    2 1    
     6    2    5 1    
     7    2    7 1    
     8    2   10 1    
     9    3    5 1    
    10    3    6 1    
    11    3   11 1    
    12    4   12 1    
    13    4   13 1    
    14    5   14 1    
    15    5   15 1    
    16    6    7 2    
    17    6   16 1    
    18    7   17 1    
    19    8   18 1    
    20    8   19 1    
    21    8   20 1    
    22    9   21 1    
    23    9   22 1    
    24    9   23 1    
    25   10   24 1    
    26   10   25 1    
    27   10   26 1    
@<TRIPOS>SUBSTRUCTURE
     1 ****        1 TEMP              0 ****  ****    0 ROOT 
@<TRIPOS>NORMAL
@<TRIPOS>FF_PBC
FORCE_FIELD_SETUP_FEATURE Force Field Setup information
v1.0  0 0.000000 0.000000 0.000000 0.000000 0.000000 0.000000 NONE 0 0 0 0 1 0 0 0 0 0 0 0 0
