@<TRIPOS>MOLECULE
MOL002187
   27    27     1     1     0
SMALL
GASTEIGER


@<TRIPOS>ATOM
      1 C          -0.167668   -1.750518    0.466290 C.ar      1 <1>        -0.047356 
      2 C           0.731169   -0.543967    0.146214 C.3       1 <1>        -0.027680 
      3 C           0.501419   -3.030872    0.808523 C.ar      1 <1>        -0.058573 
      4 C          -1.598269   -1.709441    0.453048 C.ar      1 <1>        -0.058573 
      5 C          -0.009817    0.774489   -0.206428 C.3       1 <1>        -0.049070 
      6 C          -0.251438   -4.180231    1.113599 C.ar      1 <1>        -0.061501 
      7 C          -2.383784   -2.924849    0.775676 C.ar      1 <1>        -0.061501 
      8 C           0.994263    1.921008   -0.510347 C.3       1 <1>        -0.053010 
      9 C          -1.731520   -4.125933    1.096764 C.ar      1 <1>        -0.061742 
     10 C           0.256655    3.241649   -0.863580 C.3       1 <1>        -0.055902 
     11 C           1.259640    4.385254   -1.166721 C.3       1 <1>        -0.065276 
     12 H           1.372355   -0.371298    1.025216 H         1 <1>         0.031317 
     13 H           1.375246   -0.831136   -0.700110 H         1 <1>         0.031317 
     14 H           1.585358   -3.082165    0.823923 H         1 <1>         0.062029 
     15 H          -2.136030   -0.801585    0.210275 H         1 <1>         0.062029 
     16 H          -0.643869    0.613450   -1.093815 H         1 <1>         0.026840 
     17 H          -0.646745    1.075961    0.641419 H         1 <1>         0.026840 
     18 H           0.250786   -5.109807    1.362099 H         1 <1>         0.061766 
     19 H          -3.468401   -2.884052    0.763070 H         1 <1>         0.061766 
     20 H           1.635801    2.088620    0.370514 H         1 <1>         0.026529 
     21 H           1.638681    1.628499   -1.355770 H         1 <1>         0.026529 
     22 H          -2.308290   -5.014618    1.332661 H         1 <1>         0.061758 
     23 H          -0.384332    3.082137   -1.746794 H         1 <1>         0.026265 
     24 H          -0.387215    3.542357   -0.020145 H         1 <1>         0.026265 
     25 H           0.715873    5.310733   -1.414314 H         1 <1>         0.022978 
     26 H           1.898563    4.578561   -0.290948 H         1 <1>         0.022978 
     27 H           1.901462    4.117554   -2.020517 H         1 <1>         0.022978 
@<TRIPOS>BOND
     1    1    2 1    
     2    1    3 1    
     3    1    4 2    
     4    2    5 1    
     5    2   12 1    
     6    2   13 1    
     7    3    6 2    
     8    3   14 1    
     9    4    7 1    
    10    4   15 1    
    11    5    8 1    
    12    5   16 1    
    13    5   17 1    
    14    6    9 1    
    15    6   18 1    
    16    7    9 2    
    17    7   19 1    
    18    8   10 1    
    19    8   20 1    
    20    8   21 1    
    21    9   22 1    
    22   10   11 1    
    23   10   23 1    
    24   10   24 1    
    25   11   25 1    
    26   11   26 1    
    27   11   27 1    
@<TRIPOS>SUBSTRUCTURE
     1 ****        1 TEMP              0 ****  ****    0 ROOT 
@<TRIPOS>NORMAL
@<TRIPOS>FF_PBC
FORCE_FIELD_SETUP_FEATURE Force Field Setup information
v1.0  0 0.000000 0.000000 0.000000 0.000000 0.000000 0.000000 NONE 0 0 0 0 1 0 0 0 0 0 0 0 0
