@<TRIPOS>MOLECULE
MOL000012
   62    61     1     1     0
SMALL
GASTEIGER


@<TRIPOS>ATOM
      1 C          -3.200515   -0.199082   -0.000112 C.3       1 <1>        -0.053057 
      2 C          -1.853538    0.574790    0.000113 C.3       1 <1>        -0.053057 
      3 C          -4.410230    0.775341    0.000114 C.3       1 <1>        -0.053057 
      4 C          -0.640695   -0.395534   -0.000115 C.3       1 <1>        -0.053057 
      5 C          -5.760509    0.007218   -0.000109 C.3       1 <1>        -0.053057 
      6 C           0.704376    0.381607    0.000115 C.3       1 <1>        -0.053057 
      7 C          -6.965413    0.987633    0.000099 C.3       1 <1>        -0.053045 
      8 C           1.917990   -0.587772   -0.000112 C.3       1 <1>        -0.053057 
      9 C          -8.319832    0.227057   -0.000126 C.3       1 <1>        -0.052596 
     10 C           3.263541    0.188493    0.000117 C.3       1 <1>        -0.053057 
     11 C          -9.518871    1.214619    0.000060 C.3       1 <1>        -0.044061 
     12 C           4.475518   -0.783070   -0.000111 C.3       1 <1>        -0.053057 
     13 C         -10.877071    0.462131   -0.000144 C.3       1 <1>         0.033006 
     14 C           5.823247   -0.010585    0.000117 C.3       1 <1>        -0.053057 
     15 C         -12.055568    1.401390    0.000030 C.2       1 <1>         0.259588 
     16 C           7.032519   -0.985708   -0.000111 C.3       1 <1>        -0.053057 
     17 O         -13.252858    0.811828   -0.000092 O.3       1 <1>        -0.331267 
     18 O         -11.925456    2.615814    0.000257 O.2       1 <1>        -0.265177 
     19 C           8.382398   -0.217154    0.000119 C.3       1 <1>        -0.053065 
     20 C           9.589411   -1.194947   -0.000108 C.3       1 <1>        -0.053306 
     21 C          10.939631   -0.427664    0.000122 C.3       1 <1>        -0.055911 
     22 C          12.143521   -1.405469   -0.000107 C.3       1 <1>        -0.065276 
     23 H          -3.251061   -0.842867   -0.893627 H         1 <1>         0.026528 
     24 H          -3.251096   -0.843328    0.893090 H         1 <1>         0.026528 
     25 H          -1.803779    1.218761    0.893591 H         1 <1>         0.026528 
     26 H          -1.803748    1.219218   -0.893021 H         1 <1>         0.026528 
     27 H          -4.358160    1.419217    0.893565 H         1 <1>         0.026528 
     28 H          -4.358125    1.419668   -0.892988 H         1 <1>         0.026528 
     29 H          -0.689460   -1.039604   -0.893637 H         1 <1>         0.026528 
     30 H          -0.689492   -1.040068    0.893079 H         1 <1>         0.026528 
     31 H          -5.813841   -0.636358   -0.893648 H         1 <1>         0.026528 
     32 H          -5.813889   -0.636800    0.893130 H         1 <1>         0.026528 
     33 H           0.752997    1.025617    0.893594 H         1 <1>         0.026528 
     34 H           0.753030    1.026079   -0.893037 H         1 <1>         0.026528 
     35 H          -6.910017    1.631237    0.893535 H         1 <1>         0.026529 
     36 H          -6.909970    1.631665   -0.893007 H         1 <1>         0.026529 
     37 H           1.869140   -1.231764   -0.893610 H         1 <1>         0.026528 
     38 H           1.869105   -1.232224    0.893044 H         1 <1>         0.026528 
     39 H          -8.376729   -0.416217   -0.893707 H         1 <1>         0.026540 
     40 H          -8.376789   -0.416634    0.893186 H         1 <1>         0.026540 
     41 H           3.312776    0.832487    0.893623 H         1 <1>         0.026528 
     42 H           3.312812    0.832951   -0.893066 H         1 <1>         0.026528 
     43 H          -9.463799    1.858012    0.893961 H         1 <1>         0.027004 
     44 H          -9.463746    1.858402   -0.893524 H         1 <1>         0.027004 
     45 H           4.425265   -1.426973   -0.893591 H         1 <1>         0.026528 
     46 H           4.425229   -1.427433    0.893027 H         1 <1>         0.026528 
     47 H         -10.948861   -0.177086   -0.894028 H         1 <1>         0.036600 
     48 H         -10.948916   -0.177482    0.893474 H         1 <1>         0.036600 
     49 H           5.874165    0.633269    0.893623 H         1 <1>         0.026528 
     50 H           5.874202    0.633732   -0.893064 H         1 <1>         0.026528 
     51 H           6.980759   -1.629453   -0.893589 H         1 <1>         0.026528 
     52 H           6.980722   -1.629913    0.893025 H         1 <1>         0.026528 
     53 H         -13.959260    1.448711    0.000023 H         1 <1>         0.220208 
     54 H           8.435289    0.426480    0.893646 H         1 <1>         0.026528 
     55 H           8.435327    0.426944   -0.893089 H         1 <1>         0.026528 
     56 H           9.537500   -1.838778   -0.893610 H         1 <1>         0.026520 
     57 H           9.537462   -1.839236    0.893045 H         1 <1>         0.026520 
     58 H          10.998619    0.215961    0.893777 H         1 <1>         0.026265 
     59 H          10.998658    0.216426   -0.893219 H         1 <1>         0.026265 
     60 H          13.089757   -0.841395    0.000057 H         1 <1>         0.022978 
     61 H          12.118135   -2.046251   -0.895290 H         1 <1>         0.022978 
     62 H          12.118095   -2.046711    0.894736 H         1 <1>         0.022978 
@<TRIPOS>BOND
     1    1    2 1    
     2    1    3 1    
     3    1   23 1    
     4    1   24 1    
     5    2    4 1    
     6    2   25 1    
     7    2   26 1    
     8    3    5 1    
     9    3   27 1    
    10    3   28 1    
    11    4    6 1    
    12    4   29 1    
    13    4   30 1    
    14    5    7 1    
    15    5   31 1    
    16    5   32 1    
    17    6    8 1    
    18    6   33 1    
    19    6   34 1    
    20    7    9 1    
    21    7   35 1    
    22    7   36 1    
    23    8   10 1    
    24    8   37 1    
    25    8   38 1    
    26    9   11 1    
    27    9   39 1    
    28    9   40 1    
    29   10   12 1    
    30   10   41 1    
    31   10   42 1    
    32   11   13 1    
    33   11   43 1    
    34   11   44 1    
    35   12   14 1    
    36   12   45 1    
    37   12   46 1    
    38   13   15 1    
    39   13   47 1    
    40   13   48 1    
    41   14   16 1    
    42   14   49 1    
    43   14   50 1    
    44   15   17 1    
    45   15   18 2    
    46   16   19 1    
    47   16   51 1    
    48   16   52 1    
    49   17   53 1    
    50   19   20 1    
    51   19   54 1    
    52   19   55 1    
    53   20   21 1    
    54   20   56 1    
    55   20   57 1    
    56   21   22 1    
    57   21   58 1    
    58   21   59 1    
    59   22   60 1    
    60   22   61 1    
    61   22   62 1    
@<TRIPOS>SUBSTRUCTURE
     1 ****        1 TEMP              0 ****  ****    0 ROOT 
@<TRIPOS>NORMAL
@<TRIPOS>FF_PBC
FORCE_FIELD_SETUP_FEATURE Force Field Setup information
v1.0  0 0.000000 0.000000 0.000000 0.000000 0.000000 0.000000 NONE 0 0 0 0 1 0 0 0 0 0 0 0 0
