@<TRIPOS>MOLECULE
MOL002283
   65    68     1     1     0
SMALL
GASTEIGER


@<TRIPOS>ATOM
      1 C          -0.412991    3.401128    7.497019 C.ar      1 <1>         0.132457 
      2 C           0.886719    3.100752    6.845723 C.ar      1 <1>         0.105520 
      3 C           1.084927    3.443674    5.493203 C.ar      1 <1>        -0.016369 
      4 C           0.004304    4.104418    4.724831 C.ar      1 <1>         0.051495 
      5 C          -1.218761    4.399286    5.340961 C.ar      1 <1>        -0.016369 
      6 C          -1.443042    4.037382    6.759287 C.ar      1 <1>         0.105520 
      7 O          -0.633049    3.064230    8.835757 O.3       1 <1>        -0.355395 
      8 O           1.893211    2.480430    7.593086 O.3       1 <1>        -0.357199 
      9 O          -2.672302    4.328955    7.353459 O.3       1 <1>        -0.357199 
     10 C           0.241195    4.458563    3.273108 C.2       1 <1>         0.294052 
     11 O           0.640763    5.580400    3.012593 O.2       1 <1>        -0.259223 
     12 O           0.040914    3.600750    2.262445 O.3       1 <1>        -0.308753 
     13 C          -0.572209    2.346408    2.632936 C.3       1 <1>         0.086172 
     14 C          -0.683077    1.463603    1.362365 C.3       1 <1>         0.113873 
     15 C          -1.670848    0.289476    1.574240 C.3       1 <1>         0.111923 
     16 O           0.623846    0.935386    1.056274 O.3       1 <1>        -0.340141 
     17 C           0.660734    0.163601   -0.157632 C.3       1 <1>         0.193643 
     18 C          -1.739393   -0.571432    0.288267 C.3       1 <1>         0.114074 
     19 C          -0.314087   -1.046036   -0.109161 C.3       1 <1>         0.134509 
     20 O          -2.976168    0.810977    1.886187 O.3       1 <1>        -0.386488 
     21 O          -2.628961   -1.670645    0.574078 O.3       1 <1>        -0.386401 
     22 O          -0.325428   -1.658686   -1.415863 O.3       1 <1>        -0.384091 
     23 O           2.030252   -0.267480   -0.278621 O.3       1 <1>        -0.312551 
     24 C           2.281503   -1.097357   -1.370336 C.ar      1 <1>         0.079499 
     25 C           2.671438   -2.508434   -1.141951 C.ar      1 <1>        -0.031013 
     26 C           2.157352   -0.610115   -2.683838 C.ar      1 <1>        -0.031013 
     27 C           2.344174   -1.524707   -3.833854 C.ar      1 <1>        -0.052153 
     28 C           2.665488   -2.876474   -3.615604 C.ar      1 <1>        -0.024855 
     29 C           2.862228   -3.374568   -2.233424 C.ar      1 <1>        -0.052153 
     30 C           2.802764   -3.831355   -4.780057 C.2       1 <1>        -0.054032 
     31 C           1.875929   -3.928020   -5.743977 C.2       1 <1>        -0.053878 
     32 C           0.565690   -3.168654   -5.724701 C.ar      1 <1>        -0.020152 
     33 C           0.044661   -2.577125   -6.979719 C.ar      1 <1>        -0.024623 
     34 C          -0.182003   -3.022929   -4.534088 C.ar      1 <1>        -0.024623 
     35 C          -1.452637   -2.261535   -4.525012 C.ar      1 <1>         0.075576 
     36 C          -1.934005   -1.701052   -5.728269 C.ar      1 <1>        -0.002134 
     37 C          -1.167244   -1.871660   -6.989594 C.ar      1 <1>         0.075576 
     38 O          -1.633105   -1.341019   -8.194309 O.3       1 <1>        -0.359731 
     39 O          -2.152338   -2.119454   -3.322717 O.3       1 <1>        -0.359731 
     40 H           2.028637    3.229277    5.002615 H         1 <1>         0.065181 
     41 H          -2.009387    4.891901    4.784317 H         1 <1>         0.065181 
     42 H           0.133754    2.660445    9.229799 H         1 <1>         0.217501 
     43 H           2.729723    2.403088    7.146874 H         1 <1>         0.217423 
     44 H          -2.696323    4.058948    8.266509 H         1 <1>         0.217423 
     45 H           0.016894    1.792453    3.381545 H         1 <1>         0.059272 
     46 H          -1.577985    2.544529    3.038836 H         1 <1>         0.059272 
     47 H          -1.056622    2.108680    0.548628 H         1 <1>         0.064694 
     48 H          -1.301375   -0.334975    2.405769 H         1 <1>         0.064673 
     49 H           0.394359    0.808775   -1.009388 H         1 <1>         0.094159 
     50 H          -2.156065    0.047302   -0.526238 H         1 <1>         0.064758 
     51 H           0.063448   -1.748796    0.652582 H         1 <1>         0.067108 
     52 H          -3.617252    0.115476    2.007414 H         1 <1>         0.210004 
     53 H          -2.820224   -2.221352   -0.178338 H         1 <1>         0.210005 
     54 H          -0.872517   -2.433819   -1.492101 H         1 <1>         0.210111 
     55 H           2.810798   -2.865682   -0.128118 H         1 <1>         0.064347 
     56 H           1.912370    0.430260   -2.862317 H         1 <1>         0.064347 
     57 H           2.220909   -1.147254   -4.843907 H         1 <1>         0.062423 
     58 H           3.149973   -4.407428   -2.067360 H         1 <1>         0.062423 
     59 H           3.697364   -4.454377   -4.817771 H         1 <1>         0.062362 
     60 H           2.057493   -4.589592   -6.591258 H         1 <1>         0.062363 
     61 H           0.602172   -2.690176   -7.903138 H         1 <1>         0.064912 
     62 H           0.159213   -3.472837   -3.610914 H         1 <1>         0.064912 
     63 H          -2.865886   -1.146405   -5.733173 H         1 <1>         0.066901 
     64 H          -2.493321   -0.940487   -8.132354 H         1 <1>         0.217315 
     65 H          -2.758664   -1.387281   -3.317453 H         1 <1>         0.217315 
@<TRIPOS>BOND
     1    1    2 1    
     2    1    6 2    
     3    1    7 1    
     4    2    3 2    
     5    2    8 1    
     6    3    4 1    
     7    3   40 1    
     8    4    5 2    
     9    4   10 1    
    10    5    6 1    
    11    5   41 1    
    12    6    9 1    
    13    7   42 1    
    14    8   43 1    
    15    9   44 1    
    16   10   11 2    
    17   10   12 1    
    18   12   13 1    
    19   13   14 1    
    20   13   45 1    
    21   13   46 1    
    22   14   15 1    
    23   14   16 1    
    24   14   47 1    
    25   15   18 1    
    26   15   20 1    
    27   15   48 1    
    28   16   17 1    
    29   17   19 1    
    30   17   23 1    
    31   17   49 1    
    32   18   19 1    
    33   18   21 1    
    34   18   50 1    
    35   19   22 1    
    36   19   51 1    
    37   20   52 1    
    38   21   53 1    
    39   22   54 1    
    40   23   24 1    
    41   24   25 1    
    42   24   26 2    
    43   25   29 2    
    44   25   55 1    
    45   26   27 1    
    46   26   56 1    
    47   27   28 2    
    48   27   57 1    
    49   28   29 1    
    50   28   30 1    
    51   29   58 1    
    52   30   31 2    
    53   30   59 1    
    54   31   32 1    
    55   31   60 1    
    56   32   33 1    
    57   32   34 2    
    58   33   37 2    
    59   33   61 1    
    60   34   35 1    
    61   34   62 1    
    62   35   36 2    
    63   35   39 1    
    64   36   37 1    
    65   36   63 1    
    66   37   38 1    
    67   38   64 1    
    68   39   65 1    
@<TRIPOS>SUBSTRUCTURE
     1 ****        1 TEMP              0 ****  ****    0 ROOT 
@<TRIPOS>NORMAL
@<TRIPOS>FF_PBC
FORCE_FIELD_SETUP_FEATURE Force Field Setup information
v1.0  0 0.000000 0.000000 0.000000 0.000000 0.000000 0.000000 NONE 0 0 0 0 1 0 0 0 0 0 0 0 0
