@<TRIPOS>MOLECULE
MOL001254
   25    25     1     1     0
SMALL
GASTEIGER


@<TRIPOS>ATOM
      1 C          -0.138322   -1.213745   -0.078169 C.3       1 <1>        -0.016676 
      2 C          -1.187112   -0.432165   -0.908416 C.3       1 <1>        -0.042166 
      3 C           1.252776   -1.000316   -0.736901 C.3       1 <1>        -0.027593 
      4 C          -0.213572   -0.847234    1.397477 C.2       1 <1>        -0.076311 
      5 C          -0.869950    1.082104   -0.848311 C.3       1 <1>        -0.024405 
      6 C           1.512367    0.427400   -1.155971 C.2       1 <1>        -0.077239 
      7 C          -1.269858   -1.569438    2.209335 C.3       1 <1>        -0.043768 
      8 C           0.592268    0.055186    1.977225 C.2       1 <1>        -0.099437 
      9 C           0.567406    1.378678   -1.208185 C.2       1 <1>        -0.012061 
     10 C           0.919470    2.752482   -1.627614 C.2       1 <1>         0.145953 
     11 O           0.073885    3.632323   -1.640503 O.2       1 <1>        -0.296044 
     12 H          -0.359184   -2.293070   -0.153035 H         1 <1>         0.034848 
     13 H          -2.208014   -0.617505   -0.538112 H         1 <1>         0.027419 
     14 H          -1.144162   -0.768726   -1.958045 H         1 <1>         0.027419 
     15 H           2.039950   -1.353375   -0.051410 H         1 <1>         0.031323 
     16 H           1.320049   -1.601379   -1.658819 H         1 <1>         0.031323 
     17 H          -1.055186    1.468451    0.166125 H         1 <1>         0.031423 
     18 H          -1.546911    1.609897   -1.539825 H         1 <1>         0.031423 
     19 H           2.539751    0.670738   -1.431630 H         1 <1>         0.057586 
     20 H          -1.300453   -1.238495    3.258508 H         1 <1>         0.027436 
     21 H          -2.265704   -1.399105    1.776161 H         1 <1>         0.027436 
     22 H          -1.063812   -2.650270    2.203977 H         1 <1>         0.027436 
     23 H           0.510006    0.289811    3.037783 H         1 <1>         0.053440 
     24 H           1.362555    0.601890    1.439460 H         1 <1>         0.053440 
     25 H           1.932157    3.015764   -1.931305 H         1 <1>         0.107793 
@<TRIPOS>BOND
     1    1    2 1    
     2    1    3 1    
     3    1    4 1    
     4    1   12 1    
     5    2    5 1    
     6    2   13 1    
     7    2   14 1    
     8    3    6 1    
     9    3   15 1    
    10    3   16 1    
    11    4    7 1    
    12    4    8 2    
    13    5    9 1    
    14    5   17 1    
    15    5   18 1    
    16    6    9 2    
    17    6   19 1    
    18    7   20 1    
    19    7   21 1    
    20    7   22 1    
    21    8   23 1    
    22    8   24 1    
    23    9   10 1    
    24   10   11 2    
    25   10   25 1    
@<TRIPOS>SUBSTRUCTURE
     1 ****        1 TEMP              0 ****  ****    0 ROOT 
@<TRIPOS>NORMAL
@<TRIPOS>FF_PBC
FORCE_FIELD_SETUP_FEATURE Force Field Setup information
v1.0  0 0.000000 0.000000 0.000000 0.000000 0.000000 0.000000 NONE 0 0 0 0 1 0 0 0 0 0 0 0 0
