@<TRIPOS>MOLECULE
MOL000234
   26    26     1     1     0
SMALL
GASTEIGER


@<TRIPOS>ATOM
      1 C          -1.208513    0.813685   -0.793556 C.2       1 <1>        -0.076493 
      2 C          -0.113200    1.584913   -0.718842 C.2       1 <1>        -0.084465 
      3 C           1.289849    1.035094   -0.639515 C.3       1 <1>        -0.027992 
      4 C           1.333128   -0.469564   -0.253203 C.3       1 <1>        -0.016697 
      5 C           0.291494   -1.212362   -1.128493 C.3       1 <1>        -0.042567 
      6 C          -1.133506   -0.696562   -0.809538 C.3       1 <1>        -0.031457 
      7 C           1.137395   -0.812718    1.217676 C.2       1 <1>        -0.076311 
      8 C           1.487276   -2.022445    1.678882 C.2       1 <1>        -0.099437 
      9 C           0.546874    0.233680    2.142277 C.3       1 <1>        -0.043768 
     10 C          -2.599497    1.403271   -0.856917 C.3       1 <1>        -0.043787 
     11 H          -0.212325    2.671138   -0.719020 H         1 <1>         0.057172 
     12 H           1.720701    1.167888   -1.645570 H         1 <1>         0.031313 
     13 H           1.906279    1.623913    0.056301 H         1 <1>         0.031313 
     14 H           2.338353   -0.838338   -0.524974 H         1 <1>         0.034848 
     15 H           0.341021   -2.301561   -0.965385 H         1 <1>         0.027408 
     16 H           0.512422   -1.022043   -2.192461 H         1 <1>         0.027408 
     17 H          -1.454669   -1.068783    0.175962 H         1 <1>         0.031008 
     18 H          -1.827427   -1.100099   -1.564839 H         1 <1>         0.031008 
     19 H           1.913949   -2.777406    1.019094 H         1 <1>         0.053440 
     20 H           1.362638   -2.301096    2.724673 H         1 <1>         0.053440 
     21 H           0.348975   -0.175549    3.144413 H         1 <1>         0.027436 
     22 H          -0.406707    0.618295    1.758550 H         1 <1>         0.027436 
     23 H           1.246893    1.071769    2.265652 H         1 <1>         0.027436 
     24 H          -2.600555    2.500832   -0.776753 H         1 <1>         0.027436 
     25 H          -3.073185    1.128049   -1.811122 H         1 <1>         0.027436 
     26 H          -3.204231    0.998982   -0.031287 H         1 <1>         0.027436 
@<TRIPOS>BOND
     1    1    2 2    
     2    1    6 1    
     3    1   10 1    
     4    2    3 1    
     5    2   11 1    
     6    3    4 1    
     7    3   12 1    
     8    3   13 1    
     9    4    5 1    
    10    4    7 1    
    11    4   14 1    
    12    5    6 1    
    13    5   15 1    
    14    5   16 1    
    15    6   17 1    
    16    6   18 1    
    17    7    8 2    
    18    7    9 1    
    19    8   19 1    
    20    8   20 1    
    21    9   21 1    
    22    9   22 1    
    23    9   23 1    
    24   10   24 1    
    25   10   25 1    
    26   10   26 1    
@<TRIPOS>SUBSTRUCTURE
     1 ****        1 TEMP              0 ****  ****    0 ROOT 
@<TRIPOS>NORMAL
@<TRIPOS>FF_PBC
FORCE_FIELD_SETUP_FEATURE Force Field Setup information
v1.0  0 0.000000 0.000000 0.000000 0.000000 0.000000 0.000000 NONE 0 0 0 0 1 0 0 0 0 0 0 0 0
