@<TRIPOS>MOLECULE
MOL004993
   46    48     1     1     0
SMALL
GASTEIGER


@<TRIPOS>ATOM
      1 C          -2.089236   -2.684286    0.534876 C.ar      1 <1>         0.080968 
      2 C          -1.679363   -3.909710   -0.204699 C.ar      1 <1>        -0.001036 
      3 C          -0.501904   -3.932551   -0.965194 C.ar      1 <1>         0.087985 
      4 C           0.363924   -2.728072   -1.004560 C.ar      1 <1>         0.077501 
      5 C           0.004790   -1.590182   -0.277303 C.ar      1 <1>         0.095823 
      6 C          -1.249597   -1.559855    0.512378 C.ar      1 <1>         0.016852 
      7 C           1.631917   -2.666072   -1.823904 C.2       1 <1>         0.170915 
      8 C           2.423560   -1.389441   -1.867896 C.3       1 <1>         0.041565 
      9 C           1.447261   -0.221958   -1.576557 C.3       1 <1>         0.097252 
     10 O           0.813108   -0.453771   -0.311055 O.3       1 <1>        -0.335303 
     11 C           2.200013    1.110921   -1.522875 C.ar      1 <1>        -0.015387 
     12 O           1.997630   -3.647747   -2.448639 O.2       1 <1>        -0.291783 
     13 C           2.165782    2.015940   -2.697889 C.ar      1 <1>        -0.053499 
     14 C           2.853771    3.229873   -2.668714 C.ar      1 <1>        -0.029068 
     15 C           3.629075    3.617018   -1.468992 C.ar      1 <1>         0.102203 
     16 C           3.660958    2.767696   -0.345684 C.ar      1 <1>         0.102525 
     17 C           2.917995    1.482314   -0.376038 C.ar      1 <1>        -0.023745 
     18 O          -3.299604   -2.636953    1.225385 O.3       1 <1>        -0.359385 
     19 O           4.329602    4.826484   -1.470685 O.3       1 <1>        -0.357275 
     20 O          -0.168420   -5.088338   -1.677256 O.3       1 <1>        -0.358966 
     21 O           4.400458    3.151487    0.778829 O.3       1 <1>        -0.357268 
     22 C          -1.540787   -0.232571    1.217506 C.3       1 <1>        -0.004331 
     23 C          -2.532756   -0.201522    2.352287 C.2       1 <1>        -0.080815 
     24 C          -3.334739    0.850943    2.610883 C.2       1 <1>        -0.079306 
     25 C          -4.323971    0.831455    3.755598 C.3       1 <1>        -0.044040 
     26 C          -3.322222    2.130785    1.798883 C.3       1 <1>        -0.044040 
     27 H          -2.296204   -4.799962   -0.165917 H         1 <1>         0.066932 
     28 H           2.898616   -1.249785   -2.852488 H         1 <1>         0.037400 
     29 H           3.212410   -1.433937   -1.101038 H         1 <1>         0.037400 
     30 H           0.662700   -0.161623   -2.352550 H         1 <1>         0.065572 
     31 H           1.605861    1.740216   -3.582961 H         1 <1>         0.062192 
     32 H           2.829453    3.899074   -3.522380 H         1 <1>         0.064413 
     33 H           2.934436    0.830464    0.489613 H         1 <1>         0.064759 
     34 H          -3.878465   -3.367732    1.045770 H         1 <1>         0.217328 
     35 H           4.834994    4.936414   -0.671243 H         1 <1>         0.217422 
     36 H           0.643424   -5.002984   -2.171714 H         1 <1>         0.217342 
     37 H           4.409462    2.499178    1.470380 H         1 <1>         0.217422 
     38 H          -1.842450    0.402011    0.373973 H         1 <1>         0.035721 
     39 H          -0.602041    0.152972    1.643424 H         1 <1>         0.035721 
     40 H          -2.561061   -1.089927    2.985316 H         1 <1>         0.057473 
     41 H          -4.053352    1.627810    4.468629 H         1 <1>         0.027427 
     42 H          -4.345181   -0.128956    4.296132 H         1 <1>         0.027427 
     43 H          -5.329851    1.034296    3.352916 H         1 <1>         0.027427 
     44 H          -3.590622    2.995708    2.421862 H         1 <1>         0.027427 
     45 H          -4.060873    2.046131    0.989875 H         1 <1>         0.027427 
     46 H          -2.339551    2.360075    1.369690 H         1 <1>         0.027427 
@<TRIPOS>BOND
     1    1    2 1    
     2    1    6 2    
     3    1   18 1    
     4    2    3 2    
     5    2   27 1    
     6    3    4 1    
     7    3   20 1    
     8    4    5 2    
     9    4    7 1    
    10    5    6 1    
    11    5   10 1    
    12    6   22 1    
    13    7    8 1    
    14    7   12 2    
    15    8    9 1    
    16    8   28 1    
    17    8   29 1    
    18    9   10 1    
    19    9   11 1    
    20    9   30 1    
    21   11   13 1    
    22   11   17 2    
    23   13   14 2    
    24   13   31 1    
    25   14   15 1    
    26   14   32 1    
    27   15   16 2    
    28   15   19 1    
    29   16   17 1    
    30   16   21 1    
    31   17   33 1    
    32   18   34 1    
    33   19   35 1    
    34   20   36 1    
    35   21   37 1    
    36   22   23 1    
    37   22   38 1    
    38   22   39 1    
    39   23   24 2    
    40   23   40 1    
    41   24   25 1    
    42   24   26 1    
    43   25   41 1    
    44   25   42 1    
    45   25   43 1    
    46   26   44 1    
    47   26   45 1    
    48   26   46 1    
@<TRIPOS>SUBSTRUCTURE
     1 ****        1 TEMP              0 ****  ****    0 ROOT 
@<TRIPOS>NORMAL
@<TRIPOS>FF_PBC
FORCE_FIELD_SETUP_FEATURE Force Field Setup information
v1.0  0 0.000000 0.000000 0.000000 0.000000 0.000000 0.000000 NONE 0 0 0 0 1 0 0 0 0 0 0 0 0
