@<TRIPOS>MOLECULE
MOL007561
   24    24     1     1     0
SMALL
GASTEIGER


@<TRIPOS>ATOM
      1 O          -0.853842   -4.454927    2.036639 O.3       1 <1>        -0.359832 
      2 C          -0.760869   -3.165011    1.506976 C.ar      1 <1>         0.072598 
      3 C          -1.938019   -2.270057    1.573810 C.ar      1 <1>        -0.031682 
      4 C          -1.874386   -0.969343    1.050895 C.ar      1 <1>        -0.056102 
      5 C          -0.629307   -0.461672    0.422022 C.ar      1 <1>        -0.046004 
      6 C           0.498902   -1.320303    0.356729 C.ar      1 <1>        -0.056102 
      7 C           0.429897   -2.694807    0.908861 C.ar      1 <1>        -0.031682 
      8 C          -0.647977    0.977692   -0.120110 C.3       1 <1>        -0.015109 
      9 C           0.654163    1.459871   -0.811149 C.3       1 <1>        -0.000407 
     10 N           0.471785    2.835518   -1.328418 N.3       1 <1>        -0.318663 
     11 C           1.613772    3.364674   -2.106584 C.3       1 <1>        -0.015778 
     12 H          -0.059689   -4.970344    1.953235 H         1 <1>         0.217313 
     13 H          -2.852402   -2.631141    2.032060 H         1 <1>         0.064328 
     14 H          -2.747584   -0.327139    1.107885 H         1 <1>         0.062108 
     15 H           1.429646   -0.996810   -0.092375 H         1 <1>         0.062108 
     16 H           1.304657   -3.333457    0.847724 H         1 <1>         0.064328 
     17 H          -1.472047    1.055358   -0.847010 H         1 <1>         0.032548 
     18 H          -0.872780    1.643992    0.727497 H         1 <1>         0.032548 
     19 H           1.495542    1.436877   -0.098228 H         1 <1>         0.042706 
     20 H           0.878159    0.791606   -1.658690 H         1 <1>         0.042706 
     21 H           0.220220    3.515862   -0.521686 H         1 <1>         0.121644 
     22 H           1.375542    4.373672   -2.478655 H         1 <1>         0.038808 
     23 H           2.522647    3.421352   -1.486347 H         1 <1>         0.038808 
     24 H           1.813872    2.718435   -2.975077 H         1 <1>         0.038808 
@<TRIPOS>BOND
     1    1    2 1    
     2    1   12 1    
     3    2    3 1    
     4    2    7 2    
     5    3    4 2    
     6    3   13 1    
     7    4    5 1    
     8    4   14 1    
     9    5    6 2    
    10    5    8 1    
    11    6    7 1    
    12    6   15 1    
    13    7   16 1    
    14    8    9 1    
    15    8   17 1    
    16    8   18 1    
    17    9   10 1    
    18    9   19 1    
    19    9   20 1    
    20   10   11 1    
    21   10   21 1    
    22   11   22 1    
    23   11   23 1    
    24   11   24 1    
@<TRIPOS>SUBSTRUCTURE
     1 ****        1 TEMP              0 ****  ****    0 ROOT 
@<TRIPOS>NORMAL
@<TRIPOS>FF_PBC
FORCE_FIELD_SETUP_FEATURE Force Field Setup information
v1.0  0 0.000000 0.000000 0.000000 0.000000 0.000000 0.000000 NONE 0 0 0 0 1 0 0 0 0 0 0 0 0
