@<TRIPOS>MOLECULE
MOL004840
   48    50     1     1     0
SMALL
GASTEIGER


@<TRIPOS>ATOM
      1 C          -1.447478   -0.769769    1.553274 C.ar      1 <1>         0.369057 
      2 C          -0.890783   -1.945240    2.227453 C.ar      1 <1>         0.120374 
      3 C          -1.566105   -2.658475    3.225984 C.ar      1 <1>        -0.010191 
      4 C          -2.932099   -2.192542    3.573364 C.ar      1 <1>         0.106896 
      5 C          -3.476179   -1.046975    2.940691 C.ar      1 <1>         0.114584 
      6 C          -2.707979   -0.305638    1.910982 C.ar      1 <1>         0.075640 
      7 O          -3.674894   -2.892768    4.523529 O.3       1 <1>        -0.345314 
      8 O          -4.752385   -0.602233    3.272260 O.3       1 <1>        -0.345033 
      9 C          -5.774013   -1.004315    2.343212 C.3       1 <1>         0.043141 
     10 C          -4.118523   -4.195008    4.096784 C.3       1 <1>         0.043136 
     11 C           0.415232   -2.078840    1.578891 C.ar      1 <1>         0.194907 
     12 C           0.521187   -1.075719    0.631139 C.ar      1 <1>         0.393643 
     13 O          -0.593401   -0.254887    0.596914 O.2       1 <1>        -0.200887 
     14 C           1.676058   -0.841771   -0.274986 C.ar      1 <1>         0.082101 
     15 C           1.908596    0.531318   -0.785875 C.ar      1 <1>        -0.039615 
     16 C           2.985517    0.819243   -1.638018 C.ar      1 <1>        -0.013084 
     17 C           3.906198   -0.270963   -2.050095 C.ar      1 <1>         0.076079 
     18 C           3.684473   -1.575742   -1.573252 C.ar      1 <1>        -0.030811 
     19 C           2.544142   -1.869094   -0.671453 C.ar      1 <1>        -0.043086 
     20 O           4.981399    0.007741   -2.902961 O.3       1 <1>        -0.359551 
     21 C           3.177947    2.265658   -2.125352 C.3       1 <1>        -0.006789 
     22 C           2.023226    2.680509   -3.004703 C.2       1 <1>        -0.080898 
     23 C           1.767427    3.938178   -3.411985 C.2       1 <1>        -0.079307 
     24 C           0.537503    4.241195   -4.242680 C.3       1 <1>        -0.044040 
     25 C           2.643219    5.132346   -3.091465 C.3       1 <1>        -0.044040 
     26 O           1.371666   -3.048134    1.872422 O.3       1 <1>        -0.351758 
     27 H          -1.116837   -3.511850    3.721312 H         1 <1>         0.065387 
     28 H          -3.121144    0.582587    1.440724 H         1 <1>         0.073870 
     29 H          -6.735054   -0.599168    2.688062 H         1 <1>         0.052871 
     30 H          -5.852164   -2.101381    2.300704 H         1 <1>         0.052871 
     31 H          -5.574999   -0.617909    1.330854 H         1 <1>         0.052871 
     32 H          -4.669227   -4.663511    4.925477 H         1 <1>         0.052871 
     33 H          -3.274963   -4.849773    3.828918 H         1 <1>         0.052871 
     34 H          -4.793900   -4.111997    3.232103 H         1 <1>         0.052871 
     35 H           1.232661    1.328398   -0.498600 H         1 <1>         0.063002 
     36 H           4.346748   -2.386405   -1.859173 H         1 <1>         0.064350 
     37 H           2.400257   -2.890841   -0.334251 H         1 <1>         0.062721 
     38 H           5.363221   -0.757940   -3.310226 H         1 <1>         0.217325 
     39 H           4.134570    2.378230   -2.657886 H         1 <1>         0.035640 
     40 H           3.201123    2.891055   -1.222079 H         1 <1>         0.035640 
     41 H           1.353026    1.882172   -3.320838 H         1 <1>         0.057472 
     42 H           0.814212    4.761755   -5.172962 H         1 <1>         0.027427 
     43 H          -0.032902    3.339189   -4.513910 H         1 <1>         0.027427 
     44 H          -0.126874    4.896362   -3.657850 H         1 <1>         0.027427 
     45 H           3.436239    4.941091   -2.356816 H         1 <1>         0.027427 
     46 H           2.020783    5.952959   -2.705002 H         1 <1>         0.027427 
     47 H           3.122290    5.477805   -4.018543 H         1 <1>         0.027427 
     48 H           1.699185   -2.977024    2.763533 H         1 <1>         0.217650 
@<TRIPOS>BOND
     1    1    2 1    
     2    1    6 2    
     3    1   13 1    
     4    2    3 2    
     5    2   11 1    
     6    3    4 1    
     7    3   27 1    
     8    4    5 2    
     9    4    7 1    
    10    5    6 1    
    11    5    8 1    
    12    6   28 1    
    13    7   10 1    
    14    8    9 1    
    15    9   29 1    
    16    9   30 1    
    17    9   31 1    
    18   10   32 1    
    19   10   33 1    
    20   10   34 1    
    21   11   12 2    
    22   11   26 1    
    23   12   13 1    
    24   12   14 1    
    25   14   15 1    
    26   14   19 2    
    27   15   16 2    
    28   15   35 1    
    29   16   17 1    
    30   16   21 1    
    31   17   18 2    
    32   17   20 1    
    33   18   19 1    
    34   18   36 1    
    35   19   37 1    
    36   20   38 1    
    37   21   22 1    
    38   21   39 1    
    39   21   40 1    
    40   22   23 2    
    41   22   41 1    
    42   23   24 1    
    43   23   25 1    
    44   24   42 1    
    45   24   43 1    
    46   24   44 1    
    47   25   45 1    
    48   25   46 1    
    49   25   47 1    
    50   26   48 1    
@<TRIPOS>SUBSTRUCTURE
     1 ****        1 TEMP              0 ****  ****    0 ROOT 
@<TRIPOS>NORMAL
@<TRIPOS>FF_PBC
FORCE_FIELD_SETUP_FEATURE Force Field Setup information
v1.0  0 0.000000 0.000000 0.000000 0.000000 0.000000 0.000000 NONE 0 0 0 0 1 0 0 0 0 0 0 0 0
