@<TRIPOS>MOLECULE
MOL004843
   48    49     1     1     0
SMALL
GASTEIGER


@<TRIPOS>ATOM
      1 C           2.041779    2.618154   -1.976522 C.2       1 <1>         0.186089 
      2 C           1.620179    4.042572   -1.369605 C.2       1 <1>        -0.013713 
      3 C           0.663626    4.568590   -0.489270 C.2       1 <1>        -0.048410 
      4 O           3.008381    2.559794   -2.717203 O.2       1 <1>        -0.287281 
      5 C           1.322128    1.306878   -1.592784 C.ar      1 <1>         0.022082 
      6 C           1.520277   -0.243749   -1.148318 C.ar      1 <1>        -0.045019 
      7 C           0.763950   -0.969289    0.191130 C.ar      1 <1>        -0.013264 
      8 C          -0.400890   -0.215589    1.114049 C.ar      1 <1>         0.076074 
      9 C          -0.860306    1.405612    0.662742 C.ar      1 <1>        -0.030990 
     10 C           0.106910    2.011211   -1.082179 C.ar      1 <1>        -0.048491 
     11 C           1.282596   -2.378736    0.519904 C.3       1 <1>        -0.006791 
     12 C           0.362031   -3.480811    0.982703 C.2       1 <1>        -0.080898 
     13 C           0.826287   -4.707688    1.290294 C.2       1 <1>        -0.079307 
     14 C          -0.089921   -5.823594    1.750077 C.3       1 <1>        -0.044040 
     15 C           2.296075   -5.084122    1.199922 C.3       1 <1>        -0.044040 
     16 O          -0.983786   -0.861360    2.204496 O.3       1 <1>        -0.359551 
     17 C          -0.313781    3.602394    0.179245 C.ar      1 <1>         0.007766 
     18 C          -1.771526    3.085436   -0.482604 C.ar      1 <1>         0.115070 
     19 C          -1.973032    1.413253   -1.167836 C.ar      1 <1>         0.133253 
     20 C          -0.723656    0.212496   -0.975791 C.ar      1 <1>         0.104818 
     21 C           1.130000    1.178600    0.519486 C.ar      1 <1>        -0.028683 
     22 C           0.893296    2.769828    0.890585 C.ar      1 <1>        -0.049530 
     23 O          -2.803582    4.033448   -0.510937 O.3       1 <1>        -0.344671 
     24 C          -3.990686    3.821732   -1.283785 C.3       1 <1>         0.043162 
     25 O          -0.830130   -1.048461   -1.574798 O.3       1 <1>        -0.357213 
     26 O          -3.159942    1.054046   -1.813441 O.3       1 <1>        -0.355376 
     27 H           2.255291    4.823718   -1.787638 H         1 <1>         0.065602 
     28 H           0.604062    5.641267   -0.291085 H         1 <1>         0.062540 
     29 H           2.226049   -0.830428   -1.729887 H         1 <1>         0.062820 
     30 H          -1.578507    1.850380    1.367605 H         1 <1>         0.064348 
     31 H          -0.176783    2.732098   -1.890315 H         1 <1>         0.062539 
     32 H           2.051120   -2.213746    1.288599 H         1 <1>         0.035640 
     33 H           1.762570   -2.760822   -0.391556 H         1 <1>         0.035640 
     34 H          -0.698661   -3.241876    1.048764 H         1 <1>         0.057472 
     35 H          -1.151039   -5.545560    1.749625 H         1 <1>         0.027427 
     36 H           0.181898   -6.116257    2.772194 H         1 <1>         0.027427 
     37 H           0.028561   -6.701581    1.099969 H         1 <1>         0.027427 
     38 H           3.001726   -4.254909    1.071331 H         1 <1>         0.027427 
     39 H           2.606946   -5.613934    2.109377 H         1 <1>         0.027427 
     40 H           2.430970   -5.750371    0.337972 H         1 <1>         0.027427 
     41 H          -1.933841   -0.849742    2.146797 H         1 <1>         0.217325 
     42 H           2.050106    0.754148    0.948423 H         1 <1>         0.064423 
     43 H           1.656990    3.262742    1.478065 H         1 <1>         0.062505 
     44 H          -4.552705    4.767083   -1.292882 H         1 <1>         0.052871 
     45 H          -3.714329    3.555962   -2.314869 H         1 <1>         0.052871 
     46 H          -4.648619    3.053929   -0.851383 H         1 <1>         0.052871 
     47 H          -1.623222   -1.061475   -2.097794 H         1 <1>         0.217423 
     48 H          -3.840413    0.900769   -1.158680 H         1 <1>         0.217502 
@<TRIPOS>BOND
     1    1    2 1    
     2    1    4 2    
     3    1    5 1    
     4    2    3 2    
     5    2   27 1    
     6    3   17 1    
     7    3   28 1    
     8    5    6 1    
     9    5   10 2    
    10    6    7 2    
    11    6   29 1    
    12    7    8 1    
    13    7   11 1    
    14    8    9 2    
    15    8   16 1    
    16    9   10 1    
    17    9   30 1    
    18   10   31 1    
    19   11   12 1    
    20   11   32 1    
    21   11   33 1    
    22   12   13 2    
    23   12   34 1    
    24   13   14 1    
    25   13   15 1    
    26   14   35 1    
    27   14   36 1    
    28   14   37 1    
    29   15   38 1    
    30   15   39 1    
    31   15   40 1    
    32   16   41 1    
    33   17   18 1    
    34   17   22 2    
    35   18   19 2    
    36   18   23 1    
    37   19   20 1    
    38   19   26 1    
    39   20   21 2    
    40   20   25 1    
    41   21   22 1    
    42   21   42 1    
    43   22   43 1    
    44   23   24 1    
    45   24   44 1    
    46   24   45 1    
    47   24   46 1    
    48   25   47 1    
    49   26   48 1    
@<TRIPOS>SUBSTRUCTURE
     1 ****        1 TEMP              0 ****  ****    0 ROOT 
@<TRIPOS>NORMAL
@<TRIPOS>FF_PBC
FORCE_FIELD_SETUP_FEATURE Force Field Setup information
v1.0  0 0.000000 0.000000 0.000000 0.000000 0.000000 0.000000 NONE 0 0 0 0 1 0 0 0 0 0 0 0 0
