@<TRIPOS>MOLECULE
MOL006589
   46    46     1     1     0
SMALL
GASTEIGER


@<TRIPOS>ATOM
      1 C          -1.232172    0.195566   -0.598909 C.ar      1 <1>        -0.013102 
      2 C          -0.535693    1.447469   -0.670563 C.ar      1 <1>         0.079525 
      3 C           0.948407    1.472727   -0.671129 C.ar      1 <1>        -0.013102 
      4 C           1.676167    0.256667   -0.592587 C.ar      1 <1>        -0.048653 
      5 C           0.972317   -1.046179   -0.480932 C.ar      1 <1>        -0.024160 
      6 C          -0.448722   -1.059758   -0.482622 C.ar      1 <1>        -0.048653 
      7 C          -2.767221    0.125166   -0.641287 C.3       1 <1>        -0.006784 
      8 C          -3.248349   -1.054801   -1.456637 C.2       1 <1>        -0.080898 
      9 C          -4.320104   -1.813870   -1.174308 C.2       1 <1>        -0.079307 
     10 C          -4.690326   -3.006980   -2.029160 C.3       1 <1>        -0.044040 
     11 C           1.707785    2.803375   -0.762360 C.3       1 <1>        -0.006784 
     12 C           2.780251    2.887981    0.302309 C.2       1 <1>        -0.080898 
     13 C           2.555732    3.074685    1.613676 C.2       1 <1>        -0.079307 
     14 C           1.175523    3.216079    2.218069 C.3       1 <1>        -0.044040 
     15 C           3.697673    3.160265    2.606218 C.3       1 <1>        -0.044040 
     16 C          -5.234462   -1.548085    0.001116 C.3       1 <1>        -0.044040 
     17 C           1.708409   -2.367529   -0.371495 C.2       1 <1>        -0.048924 
     18 C           2.985206   -2.492692    0.017680 C.2       1 <1>         0.010297 
     19 C           3.699867   -3.781400    0.094515 C.2       1 <1>         0.284026 
     20 O           4.983177   -3.800540    0.462541 O.3       1 <1>        -0.327929 
     21 O           3.120354   -4.820851   -0.181992 O.2       1 <1>        -0.260082 
     22 O          -1.240812    2.647125   -0.749878 O.3       1 <1>        -0.359270 
     23 H           2.757764    0.299955   -0.622467 H         1 <1>         0.062704 
     24 H          -0.974090   -2.004808   -0.394311 H         1 <1>         0.062704 
     25 H          -3.096676    0.083318    0.406870 H         1 <1>         0.035640 
     26 H          -3.189091    1.024483   -1.115309 H         1 <1>         0.035640 
     27 H          -2.656096   -1.281913   -2.344508 H         1 <1>         0.057472 
     28 H          -3.942567   -3.227201   -2.806084 H         1 <1>         0.027427 
     29 H          -5.654874   -2.818143   -2.524092 H         1 <1>         0.027427 
     30 H          -4.789368   -3.898101   -1.390754 H         1 <1>         0.027427 
     31 H           1.033378    3.669342   -0.683416 H         1 <1>         0.035640 
     32 H           2.163713    2.845229   -1.763772 H         1 <1>         0.035640 
     33 H           3.810428    2.785809   -0.044366 H         1 <1>         0.057472 
     34 H           1.044814    2.460301    3.005803 H         1 <1>         0.027427 
     35 H           0.354599    3.089488    1.502604 H         1 <1>         0.027427 
     36 H           1.079755    4.214271    2.669454 H         1 <1>         0.027427 
     37 H           4.691998    3.121208    2.136074 H         1 <1>         0.027427 
     38 H           3.626210    2.326452    3.320648 H         1 <1>         0.027427 
     39 H           3.625523    4.105641    3.164458 H         1 <1>         0.027427 
     40 H          -4.807434   -2.003686    0.906696 H         1 <1>         0.027427 
     41 H          -5.378467   -0.470867    0.167811 H         1 <1>         0.027427 
     42 H          -6.231026   -1.983683   -0.169245 H         1 <1>         0.027427 
     43 H           1.151306   -3.268474   -0.627305 H         1 <1>         0.062525 
     44 H           3.577284   -1.629123    0.309343 H         1 <1>         0.067729 
     45 H           5.349975   -4.678627    0.460554 H         1 <1>         0.220537 
     46 H          -1.839465    2.745710   -0.018548 H         1 <1>         0.217336 
@<TRIPOS>BOND
     1    1    2 2    
     2    1    6 1    
     3    1    7 1    
     4    2    3 1    
     5    2   22 1    
     6    3    4 2    
     7    3   11 1    
     8    4    5 1    
     9    4   23 1    
    10    5    6 2    
    11    5   17 1    
    12    6   24 1    
    13    7    8 1    
    14    7   25 1    
    15    7   26 1    
    16    8    9 2    
    17    8   27 1    
    18    9   10 1    
    19    9   16 1    
    20   10   28 1    
    21   10   29 1    
    22   10   30 1    
    23   11   12 1    
    24   11   31 1    
    25   11   32 1    
    26   12   13 2    
    27   12   33 1    
    28   13   14 1    
    29   13   15 1    
    30   14   34 1    
    31   14   35 1    
    32   14   36 1    
    33   15   37 1    
    34   15   38 1    
    35   15   39 1    
    36   16   40 1    
    37   16   41 1    
    38   16   42 1    
    39   17   18 2    
    40   17   43 1    
    41   18   19 1    
    42   18   44 1    
    43   19   20 1    
    44   19   21 2    
    45   20   45 1    
    46   22   46 1    
@<TRIPOS>SUBSTRUCTURE
     1 ****        1 TEMP              0 ****  ****    0 ROOT 
@<TRIPOS>NORMAL
@<TRIPOS>FF_PBC
FORCE_FIELD_SETUP_FEATURE Force Field Setup information
v1.0  0 0.000000 0.000000 0.000000 0.000000 0.000000 0.000000 NONE 0 0 0 0 1 0 0 0 0 0 0 0 0
