@<TRIPOS>MOLECULE
MOL004804
   80    84     1     1     0
SMALL
GASTEIGER


@<TRIPOS>ATOM
      1 O           7.079225    1.550883    0.676292 O.3       1 <1>        -0.391248 
      2 O           0.828135    2.557690   -1.515994 O.2       1 <1>        -0.292347 
      3 O          -7.079900    2.332202    0.079950 O.3       1 <1>        -0.330857 
      4 O          -4.937752    2.957163    0.187205 O.2       1 <1>        -0.264567 
      5 C           0.661189   -0.742834   -0.076043 C.3       1 <1>        -0.012656 
      6 C           2.883934    0.825090   -0.470757 C.3       1 <1>        -0.018250 
      7 C           1.339316    0.685958   -0.117603 C.3       1 <1>         0.033332 
      8 C          -0.826071   -0.670423    0.539148 C.3       1 <1>        -0.004332 
      9 C           3.679307   -0.182383    0.441758 C.3       1 <1>        -0.027446 
     10 C           1.612834   -1.663864    0.759488 C.3       1 <1>        -0.045876 
     11 C          -1.642529    0.395202   -0.198613 C.2       1 <1>        -0.056185 
     12 C           3.104473   -1.626462    0.318153 C.3       1 <1>        -0.048587 
     13 C           5.254536   -0.077725    0.434327 C.3       1 <1>        -0.005578 
     14 C          -3.167780    0.267575   -0.271609 C.3       1 <1>        -0.012608 
     15 C          -3.622939   -1.043574   -0.993478 C.3       1 <1>        -0.025442 
     16 C          -1.654252   -2.010328    0.442235 C.3       1 <1>        -0.042869 
     17 C           3.395343    2.260323   -0.069835 C.3       1 <1>        -0.044330 
     18 C          -2.555027   -2.174527   -0.818758 C.3       1 <1>        -0.046277 
     19 C           0.413557    1.621822   -0.852813 C.2       1 <1>         0.160199 
     20 C           0.575103   -1.347438   -1.514003 C.3       1 <1>        -0.058099 
     21 C           5.651452    1.391460    0.791801 C.3       1 <1>         0.060638 
     22 C           3.121185    0.641123   -2.011932 C.3       1 <1>        -0.058618 
     23 C           4.940226    2.436971   -0.102932 C.3       1 <1>        -0.025820 
     24 C          -0.788822   -0.310212    2.072078 C.3       1 <1>        -0.055302 
     25 C          -3.937288    0.509385    1.059140 C.3       1 <1>        -0.031522 
     26 C          -1.039722    1.426760   -0.807371 C.2       1 <1>        -0.018839 
     27 C          -5.003191   -1.521806   -0.426484 C.3       1 <1>        -0.046118 
     28 C          -5.472119    0.696464    0.835783 C.3       1 <1>         0.053721 
     29 C          -5.997794   -0.348603   -0.203029 C.3       1 <1>        -0.038057 
     30 C           5.929009   -0.521684   -0.901470 C.3       1 <1>        -0.057190 
     31 C           5.881015   -0.983104    1.550669 C.3       1 <1>        -0.057190 
     32 C          -3.761384   -0.769625   -2.530518 C.3       1 <1>        -0.059016 
     33 C          -6.199455    0.534634    2.205622 C.3       1 <1>        -0.050480 
     34 C          -5.791502    2.096784    0.341844 C.2       1 <1>         0.265560 
     35 H           1.305950    1.082375    0.897743 H         1 <1>         0.039170 
     36 H           3.429567    0.114142    1.474258 H         1 <1>         0.031221 
     37 H           1.281870   -2.712860    0.732854 H         1 <1>         0.027107 
     38 H           1.623083   -1.354650    1.813041 H         1 <1>         0.027107 
     39 H           3.625439   -2.309968    1.004811 H         1 <1>         0.026846 
     40 H           3.242319   -2.045113   -0.685758 H         1 <1>         0.026846 
     41 H          -3.547526    1.099334   -0.884547 H         1 <1>         0.035146 
     42 H          -2.355038   -2.103795    1.284697 H         1 <1>         0.027392 
     43 H          -0.995059   -2.884193    0.528567 H         1 <1>         0.027392 
     44 H           3.085202    2.512028    0.957700 H         1 <1>         0.027160 
     45 H           2.980661    3.036785   -0.728606 H         1 <1>         0.027160 
     46 H          -1.931078   -2.231015   -1.714290 H         1 <1>         0.027096 
     47 H          -3.059046   -3.154719   -0.772776 H         1 <1>         0.027096 
     48 H           1.520600   -1.379711   -2.049108 H         1 <1>         0.023553 
     49 H           0.271434   -2.400864   -1.473821 H         1 <1>         0.023553 
     50 H          -0.123372   -0.780790   -2.145809 H         1 <1>         0.023553 
     51 H           5.356444    1.588195    1.838918 H         1 <1>         0.059852 
     52 H           3.827373    1.365466   -2.433324 H         1 <1>         0.023535 
     53 H           3.510167   -0.350389   -2.268795 H         1 <1>         0.023535 
     54 H           2.199655    0.796970   -2.588508 H         1 <1>         0.023535 
     55 H           5.354539    2.394450   -1.118361 H         1 <1>         0.029038 
     56 H           5.182937    3.443691    0.279699 H         1 <1>         0.029038 
     57 H          -1.773910   -0.090311    2.483254 H         1 <1>         0.023829 
     58 H          -0.425920   -1.160676    2.666480 H         1 <1>         0.023829 
     59 H          -0.199881    0.571247    2.338376 H         1 <1>         0.023829 
     60 H          -3.822465   -0.355019    1.720732 H         1 <1>         0.028121 
     61 H          -3.525123    1.388461    1.581599 H         1 <1>         0.028121 
     62 H          -1.610518    2.193890   -1.330897 H         1 <1>         0.065218 
     63 H          -4.875526   -2.048802    0.532253 H         1 <1>         0.027098 
     64 H          -5.453595   -2.248890   -1.122425 H         1 <1>         0.027098 
     65 H          -6.184854    0.137499   -1.171490 H         1 <1>         0.027550 
     66 H          -6.967779   -0.758379    0.123614 H         1 <1>         0.027550 
     67 H           7.020938   -0.580008   -0.774702 H         1 <1>         0.023587 
     68 H           5.577983   -1.519605   -1.200624 H         1 <1>         0.023587 
     69 H           5.756981    0.170116   -1.731002 H         1 <1>         0.023587 
     70 H           5.360605   -0.860682    2.512965 H         1 <1>         0.023587 
     71 H           5.864311   -2.048492    1.279371 H         1 <1>         0.023587 
     72 H           6.938589   -0.725832    1.715471 H         1 <1>         0.023587 
     73 H          -2.812210   -0.382423   -2.934276 H         1 <1>         0.023525 
     74 H          -4.010128   -1.697990   -3.068165 H         1 <1>         0.023525 
     75 H          -4.536638   -0.028923   -2.769099 H         1 <1>         0.023525 
     76 H          -7.281325    0.713269    2.104549 H         1 <1>         0.023986 
     77 H          -6.060629   -0.481190    2.606665 H         1 <1>         0.023986 
     78 H          -5.799681    1.256345    2.935178 H         1 <1>         0.023986 
     79 H           7.388524    2.416140    0.925171 H         1 <1>         0.209800 
     80 H          -7.223587    3.220792   -0.226730 H         1 <1>         0.220226 
@<TRIPOS>BOND
     1   21    1 1    
     2    1   79 1    
     3   19    2 2    
     4   34    3 1    
     5    3   80 1    
     6   34    4 2    
     7    5    7 1    
     8    8    5 1    
     9    5   10 1    
    10    5   20 1    
    11    7    6 1    
    12    6    9 1    
    13    6   17 1    
    14    6   22 1    
    15   19    7 1    
    16    7   35 1    
    17   11    8 1    
    18    8   16 1    
    19    8   24 1    
    20   12    9 1    
    21    9   13 1    
    22    9   36 1    
    23   10   12 1    
    24   10   37 1    
    25   10   38 1    
    26   14   11 1    
    27   11   26 2    
    28   12   39 1    
    29   12   40 1    
    30   13   21 1    
    31   13   30 1    
    32   13   31 1    
    33   14   15 1    
    34   25   14 1    
    35   14   41 1    
    36   15   18 1    
    37   27   15 1    
    38   15   32 1    
    39   18   16 1    
    40   16   42 1    
    41   16   43 1    
    42   17   23 1    
    43   17   44 1    
    44   17   45 1    
    45   18   46 1    
    46   18   47 1    
    47   26   19 1    
    48   20   48 1    
    49   20   49 1    
    50   20   50 1    
    51   23   21 1    
    52   21   51 1    
    53   22   52 1    
    54   22   53 1    
    55   22   54 1    
    56   23   55 1    
    57   23   56 1    
    58   24   57 1    
    59   24   58 1    
    60   24   59 1    
    61   28   25 1    
    62   25   60 1    
    63   25   61 1    
    64   26   62 1    
    65   29   27 1    
    66   27   63 1    
    67   27   64 1    
    68   28   29 1    
    69   28   33 1    
    70   28   34 1    
    71   29   65 1    
    72   29   66 1    
    73   30   67 1    
    74   30   68 1    
    75   30   69 1    
    76   31   70 1    
    77   31   71 1    
    78   31   72 1    
    79   32   73 1    
    80   32   74 1    
    81   32   75 1    
    82   33   76 1    
    83   33   77 1    
    84   33   78 1    
@<TRIPOS>SUBSTRUCTURE
     1 ****        5 TEMP              0 ****  ****    0 ROOT 
@<TRIPOS>NORMAL
@<TRIPOS>FF_PBC
FORCE_FIELD_SETUP_FEATURE Force Field Setup information
v1.0  0 0.000000 0.000000 0.000000 0.000000 0.000000 0.000000 NONE 0 0 0 0 1 0 0 0 0 0 0 0 0
