@<TRIPOS>MOLECULE
MOL003785
   21    21     1     1     0
SMALL
GASTEIGER


@<TRIPOS>ATOM
      1 C           0.159380   -0.836277    0.223105 C.ar      1 <1>        -0.021335 
      2 C           1.068060    0.357112   -0.093537 C.3       1 <1>         0.082084 
      3 C           0.781634   -2.137995    0.570916 C.ar      1 <1>        -0.056372 
      4 C          -1.249906   -0.731659    0.193097 C.ar      1 <1>        -0.056372 
      5 O           0.302889    1.538237   -0.409545 O.3       1 <1>        -0.310691 
      6 C          -0.018754   -3.253077    0.866916 C.ar      1 <1>        -0.061429 
      7 C          -2.093053   -1.910195    0.505935 C.ar      1 <1>        -0.061429 
      8 C           1.054296    2.611126   -0.694304 C.2       1 <1>         0.259345 
      9 C          -1.495544   -3.136056    0.833537 C.ar      1 <1>        -0.061740 
     10 C           0.278115    3.854315   -1.026748 C.3       1 <1>         0.021444 
     11 O           2.275639    2.600677   -0.689681 O.2       1 <1>        -0.265273 
     12 H           1.704739    0.070675   -0.946603 H         1 <1>         0.061602 
     13 H           1.701938    0.533756    0.790847 H         1 <1>         0.061602 
     14 H           1.862749   -2.228763    0.596696 H         1 <1>         0.062101 
     15 H          -1.730217    0.207687   -0.057962 H         1 <1>         0.062101 
     16 H           0.441497   -4.202758    1.120685 H         1 <1>         0.061767 
     17 H          -3.174521   -1.821450    0.480662 H         1 <1>         0.061767 
     18 H          -2.111592   -3.999713    1.062817 H         1 <1>         0.061758 
     19 H           0.958449    4.690326   -1.248280 H         1 <1>         0.033023 
     20 H          -0.356294    3.666255   -1.905345 H         1 <1>         0.033023 
     21 H          -0.359205    4.127680   -0.173008 H         1 <1>         0.033023 
@<TRIPOS>BOND
     1    1    2 1    
     2    1    3 1    
     3    1    4 2    
     4    2    5 1    
     5    2   12 1    
     6    2   13 1    
     7    3    6 2    
     8    3   14 1    
     9    4    7 1    
    10    4   15 1    
    11    5    8 1    
    12    6    9 1    
    13    6   16 1    
    14    7    9 2    
    15    7   17 1    
    16    8   10 1    
    17    8   11 2    
    18    9   18 1    
    19   10   19 1    
    20   10   20 1    
    21   10   21 1    
@<TRIPOS>SUBSTRUCTURE
     1 ****        1 TEMP              0 ****  ****    0 ROOT 
@<TRIPOS>NORMAL
@<TRIPOS>FF_PBC
FORCE_FIELD_SETUP_FEATURE Force Field Setup information
v1.0  0 0.000000 0.000000 0.000000 0.000000 0.000000 0.000000 NONE 0 0 0 0 1 0 0 0 0 0 0 0 0
