@<TRIPOS>MOLECULE
MOL005820
   29    28     1     1     0
SMALL
GASTEIGER


@<TRIPOS>ATOM
      1 C          -3.369757    1.854333   -1.255170 C.3       1 <1>         0.065046 
      2 C          -2.021727    1.163719   -1.301991 C.2       1 <1>        -0.051487 
      3 C          -1.903237   -0.142541   -1.004885 C.2       1 <1>        -0.082590 
      4 C          -0.625181   -0.951457   -1.027387 C.3       1 <1>        -0.031003 
      5 C           0.149892   -0.756116    0.303047 C.3       1 <1>        -0.031082 
      6 C           1.447792   -1.530928    0.329035 C.2       1 <1>        -0.084998 
      7 C           2.378723   -1.429131    1.293054 C.2       1 <1>        -0.079608 
      8 C           3.663078   -2.228603    1.232976 C.3       1 <1>        -0.044049 
      9 O          -3.321306    2.860410   -0.227511 O.3       1 <1>        -0.390745 
     10 C           2.242870   -0.528929    2.502981 C.3       1 <1>        -0.044049 
     11 C          -0.867275    2.063056   -1.696363 C.3       1 <1>        -0.041643 
     12 H          -3.561320    2.314657   -2.238875 H         1 <1>         0.060378 
     13 H          -4.194768    1.153785   -1.042999 H         1 <1>         0.060378 
     14 H          -2.794950   -0.696667   -0.707392 H         1 <1>         0.057234 
     15 H           0.001226   -0.686777   -1.892839 H         1 <1>         0.031037 
     16 H          -0.878536   -2.019090   -1.139080 H         1 <1>         0.031037 
     17 H          -0.487181   -1.092514    1.137121 H         1 <1>         0.031036 
     18 H           0.364372    0.315985    0.432469 H         1 <1>         0.031036 
     19 H           1.624601   -2.215615   -0.501179 H         1 <1>         0.057155 
     20 H           3.759947   -2.824490    0.313391 H         1 <1>         0.027427 
     21 H           4.523532   -1.544782    1.286450 H         1 <1>         0.027427 
     22 H           3.706004   -2.916658    2.090728 H         1 <1>         0.027427 
     23 H          -4.128110    3.361457   -0.152387 H         1 <1>         0.209834 
     24 H           1.248083   -0.078606    2.622387 H         1 <1>         0.027427 
     25 H           2.451787   -1.108201    3.415271 H         1 <1>         0.027427 
     26 H           2.980854    0.283862    2.428985 H         1 <1>         0.027427 
     27 H          -1.032578    2.438837   -2.716853 H         1 <1>         0.027507 
     28 H          -0.832942    2.922110   -1.009136 H         1 <1>         0.027507 
     29 H           0.121392    1.589238   -1.671117 H         1 <1>         0.027507 
@<TRIPOS>BOND
     1    1    2 1    
     2    1    9 1    
     3    1   12 1    
     4    1   13 1    
     5    2    3 2    
     6    2   11 1    
     7    3    4 1    
     8    3   14 1    
     9    4    5 1    
    10    4   15 1    
    11    4   16 1    
    12    5    6 1    
    13    5   17 1    
    14    5   18 1    
    15    6    7 2    
    16    6   19 1    
    17    7    8 1    
    18    7   10 1    
    19    8   20 1    
    20    8   21 1    
    21    8   22 1    
    22    9   23 1    
    23   10   24 1    
    24   10   25 1    
    25   10   26 1    
    26   11   27 1    
    27   11   28 1    
    28   11   29 1    
@<TRIPOS>SUBSTRUCTURE
     1 ****        1 TEMP              0 ****  ****    0 ROOT 
@<TRIPOS>NORMAL
@<TRIPOS>FF_PBC
FORCE_FIELD_SETUP_FEATURE Force Field Setup information
v1.0  0 0.000000 0.000000 0.000000 0.000000 0.000000 0.000000 NONE 0 0 0 0 1 0 0 0 0 0 0 0 0
