@<TRIPOS>MOLECULE
MOL000700
   29    28     1     1     0
SMALL
GASTEIGER


@<TRIPOS>ATOM
      1 C          -0.822966    0.962670   -1.133035 C.2       1 <1>        -0.074109 
      2 C          -1.099518   -0.504320   -1.413565 C.3       1 <1>        -0.028492 
      3 C          -1.607917    1.739064   -0.366507 C.2       1 <1>        -0.059953 
      4 C           0.422329    1.533730   -1.779337 C.3       1 <1>        -0.043707 
      5 C           0.070012   -1.415522   -0.949064 C.3       1 <1>        -0.030847 
      6 C          -2.874219    1.292868    0.321055 C.3       1 <1>         0.062627 
      7 C           0.384409   -1.172273    0.510408 C.2       1 <1>        -0.084989 
      8 O          -3.439115    2.412716    1.027839 O.3       1 <1>        -0.390994 
      9 C           1.613821   -1.141932    1.050963 C.2       1 <1>        -0.079608 
     10 C           1.819639   -0.840123    2.520078 C.3       1 <1>        -0.044049 
     11 C           2.874104   -1.400791    0.254643 C.3       1 <1>        -0.044049 
     12 H          -2.015821   -0.859924   -0.920526 H         1 <1>         0.031286 
     13 H          -1.253188   -0.630358   -2.497573 H         1 <1>         0.031286 
     14 H          -1.333446    2.782673   -0.208640 H         1 <1>         0.059410 
     15 H           0.431933    2.634229   -1.781585 H         1 <1>         0.027437 
     16 H           1.311599    1.190154   -1.231430 H         1 <1>         0.027437 
     17 H           0.496306    1.198741   -2.824868 H         1 <1>         0.027437 
     18 H          -0.216623   -2.472686   -1.070877 H         1 <1>         0.031044 
     19 H           0.935513   -1.226445   -1.600773 H         1 <1>         0.031044 
     20 H          -3.592567    0.930520   -0.433405 H         1 <1>         0.060126 
     21 H          -2.641944    0.484187    1.033692 H         1 <1>         0.060126 
     22 H          -0.476436   -1.010072    1.159262 H         1 <1>         0.057155 
     23 H          -4.246374    2.199388    1.486684 H         1 <1>         0.209823 
     24 H           2.253935   -1.720079    3.018066 H         1 <1>         0.027427 
     25 H           0.887293   -0.576636    3.042098 H         1 <1>         0.027427 
     26 H           2.516322    0.005623    2.622562 H         1 <1>         0.027427 
     27 H           2.735908   -2.224139   -0.461470 H         1 <1>         0.027427 
     28 H           3.158099   -0.487662   -0.288909 H         1 <1>         0.027427 
     29 H           3.708512   -1.683399    0.914416 H         1 <1>         0.027427 
@<TRIPOS>BOND
     1    1    2 1    
     2    1    3 2    
     3    1    4 1    
     4    2    5 1    
     5    2   12 1    
     6    2   13 1    
     7    3    6 1    
     8    3   14 1    
     9    4   15 1    
    10    4   16 1    
    11    4   17 1    
    12    5    7 1    
    13    5   18 1    
    14    5   19 1    
    15    6    8 1    
    16    6   20 1    
    17    6   21 1    
    18    7    9 2    
    19    7   22 1    
    20    8   23 1    
    21    9   10 1    
    22    9   11 1    
    23   10   24 1    
    24   10   25 1    
    25   10   26 1    
    26   11   27 1    
    27   11   28 1    
    28   11   29 1    
@<TRIPOS>SUBSTRUCTURE
     1 ****        1 TEMP              0 ****  ****    0 ROOT 
@<TRIPOS>NORMAL
@<TRIPOS>FF_PBC
FORCE_FIELD_SETUP_FEATURE Force Field Setup information
v1.0  0 0.000000 0.000000 0.000000 0.000000 0.000000 0.000000 NONE 0 0 0 0 1 0 0 0 0 0 0 0 0
