@<TRIPOS>MOLECULE
MOL004605
   41    40     1     1     0
SMALL
GASTEIGER


@<TRIPOS>ATOM
      1 C          -2.425530   -2.890178    2.193597 C.3       1 <1>        -0.044128 
      2 C          -1.079625   -2.114328    2.028473 C.3       1 <1>        -0.050468 
      3 C          -0.990206   -1.211614    0.765341 C.3       1 <1>        -0.052815 
      4 C           0.378793   -0.479293    0.691465 C.3       1 <1>        -0.053048 
      5 C           0.466401    0.430292   -0.565073 C.3       1 <1>        -0.053057 
      6 C           1.826009    1.178571   -0.631522 C.3       1 <1>        -0.053057 
      7 C          -3.634217   -1.927492    2.405709 C.3       1 <1>        -0.053312 
      8 C           1.907517    2.091804   -1.885567 C.3       1 <1>        -0.053065 
      9 C          -2.667484   -3.879353    1.017733 C.3       1 <1>        -0.062423 
     10 C           3.259889    2.853590   -1.945178 C.3       1 <1>        -0.053306 
     11 C          -4.930407   -2.654690    2.855319 C.3       1 <1>        -0.065034 
     12 C           3.340679    3.765805   -3.199590 C.3       1 <1>        -0.055911 
     13 C           4.686614    4.534660   -3.251992 C.3       1 <1>        -0.065276 
     14 H          -2.317085   -3.493894    3.112852 H         1 <1>         0.029804 
     15 H          -0.921309   -1.486239    2.920729 H         1 <1>         0.026785 
     16 H          -0.253725   -2.844110    1.991907 H         1 <1>         0.026785 
     17 H          -1.109763   -1.821064   -0.143899 H         1 <1>         0.026537 
     18 H          -1.786999   -0.452534    0.785290 H         1 <1>         0.026537 
     19 H           0.511572    0.137826    1.595363 H         1 <1>         0.026529 
     20 H           1.192007   -1.223075    0.659346 H         1 <1>         0.026529 
     21 H           0.344830   -0.186288   -1.470878 H         1 <1>         0.026528 
     22 H          -0.352022    1.168422   -0.537728 H         1 <1>         0.026528 
     23 H           1.947152    1.794036    0.275118 H         1 <1>         0.026528 
     24 H           2.646606    0.442918   -0.661653 H         1 <1>         0.026528 
     25 H          -3.856060   -1.376968    1.478088 H         1 <1>         0.026521 
     26 H          -3.373160   -1.192431    3.185421 H         1 <1>         0.026521 
     27 H           1.795249    1.475648   -2.792880 H         1 <1>         0.026528 
     28 H           1.081271    2.821269   -1.859328 H         1 <1>         0.026528 
     29 H          -3.461163   -4.599650    1.265979 H         1 <1>         0.023242 
     30 H          -1.753518   -4.454823    0.804639 H         1 <1>         0.023242 
     31 H          -2.965437   -3.342772    0.104952 H         1 <1>         0.023242 
     32 H           3.370079    3.471812   -1.038997 H         1 <1>         0.026520 
     33 H           4.088215    2.126438   -1.969969 H         1 <1>         0.026520 
     34 H          -5.714048   -1.914312    3.082696 H         1 <1>         0.022986 
     35 H          -4.744909   -3.251528    3.761704 H         1 <1>         0.022986 
     36 H          -5.312639   -3.317107    2.064753 H         1 <1>         0.022986 
     37 H           3.240616    3.151250   -4.109889 H         1 <1>         0.026265 
     38 H           2.511760    4.493050   -3.181746 H         1 <1>         0.026265 
     39 H           4.723424    5.173925   -4.148303 H         1 <1>         0.022978 
     40 H           4.799278    5.173264   -2.361970 H         1 <1>         0.022978 
     41 H           5.531143    3.829062   -3.290206 H         1 <1>         0.022978 
@<TRIPOS>BOND
     1    1    2 1    
     2    1    7 1    
     3    1    9 1    
     4    1   14 1    
     5    2    3 1    
     6    2   15 1    
     7    2   16 1    
     8    3    4 1    
     9    3   17 1    
    10    3   18 1    
    11    4    5 1    
    12    4   19 1    
    13    4   20 1    
    14    5    6 1    
    15    5   21 1    
    16    5   22 1    
    17    6    8 1    
    18    6   23 1    
    19    6   24 1    
    20    7   11 1    
    21    7   25 1    
    22    7   26 1    
    23    8   10 1    
    24    8   27 1    
    25    8   28 1    
    26    9   29 1    
    27    9   30 1    
    28    9   31 1    
    29   10   12 1    
    30   10   32 1    
    31   10   33 1    
    32   11   34 1    
    33   11   35 1    
    34   11   36 1    
    35   12   13 1    
    36   12   37 1    
    37   12   38 1    
    38   13   39 1    
    39   13   40 1    
    40   13   41 1    
@<TRIPOS>SUBSTRUCTURE
     1 ****        1 TEMP              0 ****  ****    0 ROOT 
@<TRIPOS>NORMAL
@<TRIPOS>FF_PBC
FORCE_FIELD_SETUP_FEATURE Force Field Setup information
v1.0  0 0.000000 0.000000 0.000000 0.000000 0.000000 0.000000 NONE 0 0 0 0 1 0 0 0 0 0 0 0 0
