@<TRIPOS>MOLECULE
MOL012266
   41    43     1     1     0
SMALL
GASTEIGER


@<TRIPOS>ATOM
      1 C           5.837503   -0.535457    0.366244 C.2       1 <1>         0.098920 
      2 C           5.807262   -1.783780    0.853660 C.2       1 <1>         0.017089 
      3 C           4.557752   -2.545569    0.911217 C.2       1 <1>         0.193597 
      4 O           4.541970   -3.691652    1.326542 O.2       1 <1>        -0.287016 
      5 C           3.297887   -1.851611    0.451470 C.ar      1 <1>         0.084493 
      6 C           1.990288   -2.548149    0.419002 C.ar      1 <1>         0.088490 
      7 C           0.841615   -1.833803    0.054531 C.ar      1 <1>         0.001492 
      8 C           0.921271   -0.395763   -0.285047 C.ar      1 <1>         0.110696 
      9 C           2.178453    0.259620   -0.307827 C.ar      1 <1>         0.137043 
     10 C           3.416612   -0.510025    0.049057 C.ar      1 <1>         0.128734 
     11 O           4.693304    0.080809   -0.011158 O.3       1 <1>        -0.304956 
     12 C           7.155361    0.209068    0.223773 C.ar      1 <1>         0.065157 
     13 C           7.209636    1.690302    0.387159 C.ar      1 <1>         0.084674 
     14 C           8.420675    2.385906    0.193053 C.ar      1 <1>        -0.031113 
     15 C           9.673881    1.663151   -0.104821 C.ar      1 <1>        -0.056851 
     16 C           9.642014    0.278653   -0.225893 C.ar      1 <1>        -0.030865 
     17 C           8.365362   -0.457638   -0.083794 C.ar      1 <1>         0.087897 
     18 O           8.396853   -1.836291   -0.272294 O.3       1 <1>        -0.347157 
     19 C           8.165790   -2.272445   -1.616782 C.3       1 <1>         0.043053 
     20 O           2.212881    1.620409   -0.658170 O.3       1 <1>        -0.342923 
     21 C           3.312865    2.473371   -0.331227 C.3       1 <1>         0.043243 
     22 O          -0.287653    0.269637   -0.573564 O.3       1 <1>        -0.345170 
     23 C          -0.495139    1.658455   -0.238418 C.3       1 <1>         0.043138 
     24 O           6.052789    2.382096    0.743683 O.3       1 <1>        -0.359077 
     25 O           1.909913   -3.904734    0.738615 O.3       1 <1>        -0.358953 
     26 H           6.692474   -2.288116    1.227490 H         1 <1>         0.068221 
     27 H          -0.127142   -2.323791    0.014988 H         1 <1>         0.067015 
     28 H           8.447957    3.468265    0.274989 H         1 <1>         0.064342 
     29 H          10.608979    2.203033   -0.213626 H         1 <1>         0.061916 
     30 H          10.552025   -0.276079   -0.423142 H         1 <1>         0.064349 
     31 H           8.266425   -3.368406   -1.620297 H         1 <1>         0.052870 
     32 H           8.905193   -1.847753   -2.313863 H         1 <1>         0.052870 
     33 H           7.152546   -2.001268   -1.947726 H         1 <1>         0.052870 
     34 H           3.018004    3.512745   -0.543202 H         1 <1>         0.052872 
     35 H           3.559352    2.393686    0.739389 H         1 <1>         0.052872 
     36 H           4.178639    2.227398   -0.963557 H         1 <1>         0.052872 
     37 H          -1.578554    1.858011   -0.251570 H         1 <1>         0.052871 
     38 H          -0.029191    2.330078   -0.975123 H         1 <1>         0.052871 
     39 H          -0.116005    1.887126    0.770863 H         1 <1>         0.052871 
     40 H           6.087241    3.318230    0.576995 H         1 <1>         0.217340 
     41 H           1.187554   -4.361174    0.317555 H         1 <1>         0.217342 
@<TRIPOS>BOND
     1    1    2 2    
     2    1   11 1    
     3    1   12 1    
     4    2    3 1    
     5    2   26 1    
     6    3    4 2    
     7    3    5 1    
     8    5    6 1    
     9    5   10 2    
    10    6    7 2    
    11    6   25 1    
    12    7    8 1    
    13    7   27 1    
    14    8    9 2    
    15    8   22 1    
    16    9   10 1    
    17    9   20 1    
    18   10   11 1    
    19   12   13 1    
    20   12   17 2    
    21   13   14 2    
    22   13   24 1    
    23   14   15 1    
    24   14   28 1    
    25   15   16 2    
    26   15   29 1    
    27   16   17 1    
    28   16   30 1    
    29   17   18 1    
    30   18   19 1    
    31   19   31 1    
    32   19   32 1    
    33   19   33 1    
    34   20   21 1    
    35   21   34 1    
    36   21   35 1    
    37   21   36 1    
    38   22   23 1    
    39   23   37 1    
    40   23   38 1    
    41   23   39 1    
    42   24   40 1    
    43   25   41 1    
@<TRIPOS>SUBSTRUCTURE
     1 ****        1 TEMP              0 ****  ****    0 ROOT 
@<TRIPOS>NORMAL
@<TRIPOS>FF_PBC
FORCE_FIELD_SETUP_FEATURE Force Field Setup information
v1.0  0 0.000000 0.000000 0.000000 0.000000 0.000000 0.000000 NONE 0 0 0 0 1 0 0 0 0 0 0 0 0
