@<TRIPOS>MOLECULE
MOL001897
   29    30     1     1     0
SMALL
GASTEIGER


@<TRIPOS>ATOM
      1 O          -3.732456   -0.338904    0.007118 O.3       1 <1>        -0.394725 
      2 C           1.302155   -0.340228    0.255384 C.3       1 <1>        -0.028890 
      3 C           0.038001   -0.809512   -0.519042 C.3       1 <1>        -0.030455 
      4 C           1.148595    0.977979   -0.550401 C.3       1 <1>        -0.035332 
      5 C           0.409554    0.180392   -1.656740 C.3       1 <1>        -0.046050 
      6 C          -1.267566   -0.309136    0.167245 C.3       1 <1>        -0.014475 
      7 C           0.118970    1.933213    0.116937 C.3       1 <1>        -0.049375 
      8 C          -1.287073    1.256567    0.267853 C.3       1 <1>        -0.047594 
      9 C           1.251692   -0.266824    1.813887 C.3       1 <1>        -0.059297 
     10 C           2.579221   -1.142809   -0.149568 C.3       1 <1>        -0.059297 
     11 C          -2.521907   -0.844907   -0.582649 C.3       1 <1>         0.047290 
     12 H           0.032024   -1.879002   -0.785454 H         1 <1>         0.030950 
     13 H           2.093129    1.463865   -0.845812 H         1 <1>         0.030612 
     14 H          -0.410040    0.703095   -2.172261 H         1 <1>         0.027103 
     15 H           1.081748   -0.250227   -2.414065 H         1 <1>         0.027103 
     16 H          -1.320543   -0.765363    1.168834 H         1 <1>         0.032567 
     17 H           0.030080    2.831932   -0.516790 H         1 <1>         0.026820 
     18 H           0.517597    2.280841    1.082443 H         1 <1>         0.026820 
     19 H          -1.767935    1.573831    1.208065 H         1 <1>         0.026882 
     20 H          -1.926478    1.643309   -0.543351 H         1 <1>         0.026882 
     21 H           2.171768    0.212869    2.180352 H         1 <1>         0.023516 
     22 H           0.408661    0.289278    2.241330 H         1 <1>         0.023516 
     23 H           1.207459   -1.288610    2.220102 H         1 <1>         0.023516 
     24 H           2.720193   -1.266141   -1.231167 H         1 <1>         0.023516 
     25 H           3.472622   -0.632919    0.241797 H         1 <1>         0.023516 
     26 H           2.533748   -2.149945    0.292001 H         1 <1>         0.023516 
     27 H          -2.534099   -1.948645   -0.579597 H         1 <1>         0.055981 
     28 H          -2.508295   -0.515842   -1.632948 H         1 <1>         0.055981 
     29 H          -3.840226   -0.596857    0.917395 H         1 <1>         0.209407 
@<TRIPOS>BOND
     1   11    1 1    
     2    1   29 1    
     3    3    2 1    
     4    2    4 1    
     5    2    9 1    
     6    2   10 1    
     7    3    5 1    
     8    6    3 1    
     9    3   12 1    
    10    5    4 1    
    11    4    7 1    
    12    4   13 1    
    13    5   14 1    
    14    5   15 1    
    15    6    8 1    
    16    6   11 1    
    17    6   16 1    
    18    7    8 1    
    19    7   17 1    
    20    7   18 1    
    21    8   19 1    
    22    8   20 1    
    23    9   21 1    
    24    9   22 1    
    25    9   23 1    
    26   10   24 1    
    27   10   25 1    
    28   10   26 1    
    29   11   27 1    
    30   11   28 1    
@<TRIPOS>SUBSTRUCTURE
     1 ****        2 TEMP              0 ****  ****    0 ROOT 
@<TRIPOS>NORMAL
@<TRIPOS>FF_PBC
FORCE_FIELD_SETUP_FEATURE Force Field Setup information
v1.0  0 0.000000 0.000000 0.000000 0.000000 0.000000 0.000000 NONE 0 0 0 0 1 0 0 0 0 0 0 0 0
