@<TRIPOS>MOLECULE
MOL004591
   27    26     1     1     0
SMALL
GASTEIGER


@<TRIPOS>ATOM
      1 O          -4.900692   -2.751317    0.000165 O.3       1 <1>        -0.327936 
      2 O          -3.535955   -4.467403    0.000001 O.2       1 <1>        -0.260093 
      3 C           1.263911    0.234499   -0.000095 C.3       1 <1>        -0.052788 
      4 C           1.085890    1.777790    0.000081 C.3       1 <1>        -0.053297 
      5 C          -0.110137   -0.491062   -0.000003 C.3       1 <1>        -0.049605 
      6 C           2.456951    2.507187   -0.000075 C.3       1 <1>        -0.055911 
      7 C           0.060374   -2.035164   -0.000146 C.3       1 <1>        -0.034287 
      8 C           2.275281    4.047520    0.000114 C.3       1 <1>        -0.065276 
      9 C          -1.211267   -2.857968   -0.000105 C.2       1 <1>        -0.078363 
     10 C          -2.464214   -2.378459    0.000042 C.2       1 <1>         0.005826 
     11 C          -3.661203   -3.254343    0.000068 C.2       1 <1>         0.283708 
     12 H          -1.072998   -3.940900   -0.000207 H         1 <1>         0.057383 
     13 H          -2.640660   -1.305717    0.000147 H         1 <1>         0.067395 
     14 H          -4.945602   -1.803235    0.000208 H         1 <1>         0.220537 
     15 H           1.836278   -0.065312   -0.893469 H         1 <1>         0.026537 
     16 H           1.836499   -0.065488    0.893080 H         1 <1>         0.026537 
     17 H           0.514646    2.079434    0.893506 H         1 <1>         0.026520 
     18 H           0.514359    2.079605   -0.893102 H         1 <1>         0.026520 
     19 H          -0.672339   -0.184794    0.897601 H         1 <1>         0.026822 
     20 H          -0.672526   -0.184647   -0.897438 H         1 <1>         0.026822 
     21 H           3.032088    2.212449   -0.893724 H         1 <1>         0.026265 
     22 H           3.032393    2.212263    0.893315 H         1 <1>         0.026265 
     23 H           0.640396   -2.324089   -0.891566 H         1 <1>         0.030743 
     24 H           0.640554   -2.324237    0.891121 H         1 <1>         0.030743 
     25 H           3.257933    4.545228   -0.000020 H         1 <1>         0.022978 
     26 H           1.720238    4.368988    0.895257 H         1 <1>         0.022978 
     27 H           1.719904    4.369170   -0.894758 H         1 <1>         0.022978 
@<TRIPOS>BOND
     1   11    1 1    
     2    1   14 1    
     3   11    2 2    
     4    3    4 1    
     5    5    3 1    
     6    3   15 1    
     7    3   16 1    
     8    4    6 1    
     9    4   17 1    
    10    4   18 1    
    11    7    5 1    
    12    5   19 1    
    13    5   20 1    
    14    6    8 1    
    15    6   21 1    
    16    6   22 1    
    17    9    7 1    
    18    7   23 1    
    19    7   24 1    
    20    8   25 1    
    21    8   26 1    
    22    8   27 1    
    23   10    9 2    
    24    9   12 1    
    25   10   11 1    
    26   10   13 1    
@<TRIPOS>SUBSTRUCTURE
     1 ****        3 TEMP              0 ****  ****    0 ROOT 
@<TRIPOS>NORMAL
@<TRIPOS>FF_PBC
FORCE_FIELD_SETUP_FEATURE Force Field Setup information
v1.0  0 0.000000 0.000000 0.000000 0.000000 0.000000 0.000000 NONE 0 0 0 0 1 0 0 0 0 0 0 0 0
