@<TRIPOS>MOLECULE
MOL001792
   31    33     1     1     0
SMALL
GASTEIGER


@<TRIPOS>ATOM
      1 C           0.448331    0.231532   -0.461868 C.3       1 <1>         0.097160 
      2 C           0.706311    1.599857    0.213288 C.3       1 <1>         0.041476 
      3 C          -0.532745    2.439331    0.083050 C.2       1 <1>         0.168428 
      4 C          -1.873690    1.744521    0.116906 C.ar      1 <1>         0.047604 
      5 C          -1.871563    0.262826    0.165621 C.ar      1 <1>         0.089874 
      6 O          -0.662956   -0.437380    0.162443 O.3       1 <1>        -0.335670 
      7 C          -3.036883   -0.413636    0.214505 C.ar      1 <1>        -0.001193 
      8 C          -4.330675    0.309289    0.207062 C.ar      1 <1>         0.075065 
      9 C          -4.332712    1.691561    0.150757 C.ar      1 <1>        -0.031116 
     10 C          -3.047268    2.429554    0.105424 C.ar      1 <1>        -0.046345 
     11 O          -0.452192    3.650713   -0.042157 O.2       1 <1>        -0.291871 
     12 C           1.699595   -0.644993   -0.329556 C.ar      1 <1>        -0.017820 
     13 C           2.683844   -0.722227   -1.437637 C.ar      1 <1>        -0.053661 
     14 C           3.833418   -1.529111   -1.313360 C.ar      1 <1>        -0.031601 
     15 C           4.076169   -2.308859   -0.077907 C.ar      1 <1>         0.072600 
     16 C           3.133705   -2.236646    0.989069 C.ar      1 <1>        -0.031601 
     17 C           1.926167   -1.387838    0.854681 C.ar      1 <1>        -0.053661 
     18 O           5.224950   -3.098489    0.015372 O.3       1 <1>        -0.359832 
     19 O          -5.519715   -0.423887    0.255525 O.3       1 <1>        -0.359749 
     20 H           0.214502    0.373824   -1.530711 H         1 <1>         0.065571 
     21 H           1.561738    2.103097   -0.264751 H         1 <1>         0.037398 
     22 H           0.926864    1.456515    1.281890 H         1 <1>         0.037398 
     23 H          -3.030438   -1.496802    0.256362 H         1 <1>         0.066929 
     24 H          -5.264320    2.247542    0.140250 H         1 <1>         0.064341 
     25 H          -3.050497    3.514069    0.066103 H         1 <1>         0.062610 
     26 H           2.522524   -0.156123   -2.349207 H         1 <1>         0.062190 
     27 H           4.551680   -1.585014   -2.124346 H         1 <1>         0.064329 
     28 H           3.289559   -2.798080    1.903895 H         1 <1>         0.064329 
     29 H           1.214935   -1.338905    1.672631 H         1 <1>         0.062190 
     30 H           5.303348   -3.577357    0.832536 H         1 <1>         0.217313 
     31 H          -6.312086    0.101315    0.244128 H         1 <1>         0.217315 
@<TRIPOS>BOND
     1    1    2 1    
     2    1    6 1    
     3    1   12 1    
     4    1   20 1    
     5    2    3 1    
     6    2   21 1    
     7    2   22 1    
     8    3    4 1    
     9    3   11 2    
    10    4    5 1    
    11    4   10 2    
    12    5    6 1    
    13    5    7 2    
    14    7    8 1    
    15    7   23 1    
    16    8    9 2    
    17    8   19 1    
    18    9   10 1    
    19    9   24 1    
    20   10   25 1    
    21   12   13 1    
    22   12   17 2    
    23   13   14 2    
    24   13   26 1    
    25   14   15 1    
    26   14   27 1    
    27   15   16 2    
    28   15   18 1    
    29   16   17 1    
    30   16   28 1    
    31   17   29 1    
    32   18   30 1    
    33   19   31 1    
@<TRIPOS>SUBSTRUCTURE
     1 ****        1 TEMP              0 ****  ****    0 ROOT 
@<TRIPOS>NORMAL
@<TRIPOS>FF_PBC
FORCE_FIELD_SETUP_FEATURE Force Field Setup information
v1.0  0 0.000000 0.000000 0.000000 0.000000 0.000000 0.000000 NONE 0 0 0 0 1 0 0 0 0 0 0 0 0
