@<TRIPOS>MOLECULE
MOL002290
  100   107     1     1     0
SMALL
GASTEIGER


@<TRIPOS>ATOM
      1 O          -2.374452   -5.059791    0.942404 O.3       1 <1>        -0.311833 
      2 O           2.248189  -12.588021    6.394298 O.3       1 <1>        -0.311833 
      3 O          -3.650797   -3.441574   -0.291111 O.3       1 <1>        -0.340168 
      4 O           2.851086  -13.299122    8.595943 O.3       1 <1>        -0.340168 
      5 O          -1.773896   -3.893287   -2.590881 O.3       1 <1>        -0.384091 
      6 O           3.389929  -16.014928    7.401026 O.3       1 <1>        -0.384091 
      7 O          -3.146917   -6.914642   -1.036360 O.3       1 <1>        -0.386401 
      8 O           4.949782  -13.195844    5.630112 O.3       1 <1>        -0.386401 
      9 O          -4.505904   -4.064415   -3.094082 O.3       1 <1>        -0.386488 
     10 O           5.431065  -14.851398    8.911407 O.3       1 <1>        -0.386488 
     11 O          -3.606702   -7.151726    2.074726 O.2       1 <1>        -0.286459 
     12 O           3.207130  -10.130434    5.303440 O.2       1 <1>        -0.286459 
     13 O          -5.131207   -8.622394    3.553352 O.3       1 <1>        -0.359093 
     14 O           5.313604   -9.648471    3.486542 O.3       1 <1>        -0.359093 
     15 O          -6.740854   -5.482232    0.169408 O.3       1 <1>        -0.392366 
     16 O           5.418945  -10.587130    8.533527 O.3       1 <1>        -0.392366 
     17 O          -3.770488  -12.798966    6.636851 O.3       1 <1>        -0.327489 
     18 O           4.634631   -7.435377   -1.393914 O.3       1 <1>        -0.327489 
     19 O          -1.808550  -12.064073    7.234317 O.2       1 <1>        -0.259428 
     20 O           2.792717   -8.478575   -1.900000 O.2       1 <1>        -0.259428 
     21 C          -0.124432   -8.821545    3.485465 C.3       1 <1>         0.021588 
     22 C           0.439835   -9.964722    2.573232 C.3       1 <1>         0.021588 
     23 C          -0.108968   -7.481876    2.724750 C.ar      1 <1>        -0.025759 
     24 C           0.488055  -11.282032    3.367669 C.ar      1 <1>        -0.025759 
     25 C          -1.498897   -9.234273    4.039502 C.ar      1 <1>        -0.025032 
     26 C           1.861944   -9.622124    2.107066 C.ar      1 <1>        -0.025032 
     27 C          -1.252919   -6.900994    2.243322 C.ar      1 <1>         0.056150 
     28 C           1.461039  -11.452906    4.308996 C.ar      1 <1>         0.056150 
     29 C          -2.639223   -8.685390    3.574589 C.ar      1 <1>         0.055821 
     30 C           2.886635   -9.819137    2.961124 C.ar      1 <1>         0.055821 
     31 C          -2.574538   -7.552936    2.577214 C.2       1 <1>         0.198636 
     32 C           2.578739  -10.435081    4.305168 C.2       1 <1>         0.198636 
     33 C          -2.013182   -4.834527   -1.523066 C.3       1 <1>         0.134509 
     34 C           3.396147  -14.766658    6.675176 C.3       1 <1>         0.134509 
     35 C          -2.402799   -4.148132   -0.182761 C.3       1 <1>         0.193669 
     36 C           2.431297  -13.712075    7.283536 C.3       1 <1>         0.193669 
     37 C          -3.149507   -5.795214   -1.945969 C.3       1 <1>         0.114074 
     38 C           4.840469  -14.202416    6.656434 C.3       1 <1>         0.114074 
     39 C          -4.502207   -5.023636   -2.014106 C.3       1 <1>         0.111896 
     40 C           5.241974  -13.692712    8.070935 C.3       1 <1>         0.111896 
     41 C          -1.187051   -5.654738    1.423835 C.ar      1 <1>         0.090545 
     42 C           1.403751  -12.590934    5.266260 C.ar      1 <1>         0.090545 
     43 C           1.193521   -6.805881    2.510267 C.ar      1 <1>        -0.057128 
     44 C          -0.505068  -12.356892    3.139751 C.ar      1 <1>        -0.057128 
     45 C          -4.778669   -4.236564   -0.702682 C.3       1 <1>         0.113017 
     46 C           4.169605  -12.730191    8.661730 C.3       1 <1>         0.113017 
     47 C          -1.582889  -10.272067    5.100378 C.ar      1 <1>        -0.044250 
     48 C           2.121787   -9.066433    0.754802 C.ar      1 <1>        -0.044250 
     49 C          -3.956236   -9.188972    4.046581 C.ar      1 <1>         0.084406 
     50 C           4.271584   -9.454872    2.571532 C.ar      1 <1>         0.084406 
     51 C           0.046183   -5.115852    1.170618 C.ar      1 <1>        -0.030849 
     52 C           0.490105  -13.587979    5.021914 C.ar      1 <1>        -0.030849 
     53 C           1.271815   -5.709431    1.753051 C.ar      1 <1>        -0.059004 
     54 C          -0.482643  -13.461551    3.908502 C.ar      1 <1>        -0.059004 
     55 C          -2.770235  -10.782801    5.499951 C.ar      1 <1>         0.049022 
     56 C           3.382260   -8.747034    0.368448 C.ar      1 <1>         0.049022 
     57 C          -4.017663  -10.198037    4.944737 C.ar      1 <1>        -0.018357 
     58 C           4.502824   -8.945936    1.326118 C.ar      1 <1>        -0.018357 
     59 C          -5.370267   -5.117598    0.428268 C.3       1 <1>         0.073015 
     60 C           4.244238  -11.291243    8.083283 C.3       1 <1>         0.073015 
     61 C          -2.775289  -11.919450    6.505852 C.2       1 <1>         0.291326 
     62 C           3.604335   -8.204422   -1.031556 C.2       1 <1>         0.291326 
     63 H           0.524627   -8.677526    4.363858 H         1 <1>         0.040672 
     64 H          -0.222165  -10.080952    1.700859 H         1 <1>         0.040672 
     65 H          -1.100198   -5.437631   -1.380599 H         1 <1>         0.067108 
     66 H           3.101643  -14.962121    5.630679 H         1 <1>         0.067108 
     67 H          -1.737525   -3.295416    0.008261 H         1 <1>         0.094160 
     68 H           1.466038  -14.166285    7.544735 H         1 <1>         0.094160 
     69 H          -2.912840   -6.180607   -2.952895 H         1 <1>         0.064758 
     70 H           5.515116  -15.033497    6.384149 H         1 <1>         0.064758 
     71 H          -5.324804   -5.741951   -2.178968 H         1 <1>         0.064673 
     72 H           6.206644  -13.160948    7.994943 H         1 <1>         0.064673 
     73 H          -5.554482   -3.483440   -0.920398 H         1 <1>         0.064668 
     74 H           4.357944  -12.625591    9.742525 H         1 <1>         0.064668 
     75 H           2.097337   -7.191586    2.971276 H         1 <1>         0.062069 
     76 H          -1.241990  -12.260867    2.347367 H         1 <1>         0.062069 
     77 H          -0.671992  -10.631949    5.561622 H         1 <1>         0.062839 
     78 H           1.286865   -8.918439    0.079521 H         1 <1>         0.062839 
     79 H           0.182208   -4.233263    0.561023 H         1 <1>         0.064350 
     80 H           0.421487  -14.479396    5.629533 H         1 <1>         0.064350 
     81 H           2.235618   -5.238241    1.573104 H         1 <1>         0.061846 
     82 H          -1.190384  -14.264539    3.722594 H         1 <1>         0.061846 
     83 H          -4.986044  -10.561290    5.264948 H         1 <1>         0.065115 
     84 H           5.512813   -8.692485    1.032094 H         1 <1>         0.065115 
     85 H          -5.272412   -4.611563    1.403734 H         1 <1>         0.058370 
     86 H          -4.822188   -6.057715    0.473479 H         1 <1>         0.058370 
     87 H           3.328866  -10.730770    8.338029 H         1 <1>         0.058370 
     88 H           4.314795  -11.333328    6.995025 H         1 <1>         0.058370 
     89 H          -1.063177   -3.285467   -2.412043 H         1 <1>         0.210111 
     90 H           2.540861  -16.444025    7.429979 H         1 <1>         0.210111 
     91 H          -3.792649   -7.584361   -1.237364 H         1 <1>         0.210005 
     92 H           5.822996  -12.825117    5.537820 H         1 <1>         0.210005 
     93 H          -4.351270   -4.443835   -3.952255 H         1 <1>         0.210004 
     94 H           5.733158  -14.652291    9.792604 H         1 <1>         0.210004 
     95 H          -5.768981   -8.437632    4.232314 H         1 <1>         0.217340 
     96 H           6.183417   -9.445323    3.165009 H         1 <1>         0.217340 
     97 H          -7.336807   -4.739649    0.176812 H         1 <1>         0.209508 
     98 H           5.410334  -10.399314    9.466859 H         1 <1>         0.209508 
     99 H          -4.456148  -12.713203    5.988037 H         1 <1>         0.220555 
    100 H           5.202173   -7.170156   -0.683318 H         1 <1>         0.220555 
@<TRIPOS>BOND
     1    1   35 1    
     2   41    1 1    
     3    2   36 1    
     4   42    2 1    
     5   35    3 1    
     6    3   45 1    
     7   36    4 1    
     8    4   46 1    
     9   33    5 1    
    10    5   89 1    
    11   34    6 1    
    12    6   90 1    
    13   37    7 1    
    14    7   91 1    
    15   38    8 1    
    16    8   92 1    
    17   39    9 1    
    18    9   93 1    
    19   40   10 1    
    20   10   94 1    
    21   31   11 2    
    22   32   12 2    
    23   49   13 1    
    24   13   95 1    
    25   50   14 1    
    26   14   96 1    
    27   59   15 1    
    28   15   97 1    
    29   60   16 1    
    30   16   98 1    
    31   61   17 1    
    32   17   99 1    
    33   62   18 1    
    34   18  100 1    
    35   61   19 2    
    36   62   20 2    
    37   22   21 1    
    38   21   23 1    
    39   21   25 1    
    40   21   63 1    
    41   22   24 1    
    42   26   22 1    
    43   22   64 1    
    44   23   27 2    
    45   23   43 1    
    46   24   28 2    
    47   24   44 1    
    48   25   29 2    
    49   25   47 1    
    50   26   30 2    
    51   48   26 1    
    52   27   31 1    
    53   27   41 1    
    54   32   28 1    
    55   28   42 1    
    56   29   31 1    
    57   29   49 1    
    58   30   32 1    
    59   50   30 1    
    60   35   33 1    
    61   33   37 1    
    62   33   65 1    
    63   36   34 1    
    64   34   38 1    
    65   34   66 1    
    66   35   67 1    
    67   36   68 1    
    68   37   39 1    
    69   37   69 1    
    70   38   40 1    
    71   38   70 1    
    72   45   39 1    
    73   39   71 1    
    74   46   40 1    
    75   40   72 1    
    76   41   51 2    
    77   42   52 2    
    78   43   53 2    
    79   43   75 1    
    80   44   54 2    
    81   44   76 1    
    82   45   59 1    
    83   45   73 1    
    84   46   60 1    
    85   46   74 1    
    86   47   55 2    
    87   47   77 1    
    88   56   48 2    
    89   48   78 1    
    90   49   57 2    
    91   58   50 2    
    92   53   51 1    
    93   51   79 1    
    94   54   52 1    
    95   52   80 1    
    96   53   81 1    
    97   54   82 1    
    98   55   57 1    
    99   55   61 1    
   100   56   58 1    
   101   56   62 1    
   102   57   83 1    
   103   58   84 1    
   104   59   85 1    
   105   59   86 1    
   106   60   87 1    
   107   60   88 1    
@<TRIPOS>SUBSTRUCTURE
     1 ****        6 TEMP              0 ****  ****    0 ROOT 
@<TRIPOS>NORMAL
@<TRIPOS>FF_PBC
FORCE_FIELD_SETUP_FEATURE Force Field Setup information
v1.0  0 0.000000 0.000000 0.000000 0.000000 0.000000 0.000000 NONE 0 0 0 0 1 0 0 0 0 0 0 0 0
