@<TRIPOS>MOLECULE
MOL002944
   30    30     1     1     0
SMALL
GASTEIGER


@<TRIPOS>ATOM
      1 O           0.430470    0.603561   -0.673291 O.3       1 <1>        -0.361227 
      2 C           1.286882   -0.336454    0.020657 C.3       1 <1>         0.090764 
      3 C          -0.956244    0.697264   -0.277491 C.3       1 <1>         0.085427 
      4 C           0.655582   -1.759941    0.081299 C.3       1 <1>         0.083733 
      5 C          -1.545165    1.444954   -1.464527 C.2       1 <1>        -0.059947 
      6 C          -0.794202   -1.704975    0.628810 C.3       1 <1>        -0.021268 
      7 C          -2.141843    2.646075   -1.466274 C.2       1 <1>        -0.099958 
      8 C          -1.619521   -0.710570   -0.226019 C.3       1 <1>        -0.017944 
      9 O           1.477685   -2.616037    0.898083 O.3       1 <1>        -0.388962 
     10 C           2.541173   -0.384118   -0.900446 C.3       1 <1>        -0.033604 
     11 C           1.767114    0.153391    1.420087 C.3       1 <1>        -0.033604 
     12 C          -1.178424    1.482723    1.047368 C.3       1 <1>        -0.032167 
     13 H           0.610415   -2.162340   -0.946432 H         1 <1>         0.062171 
     14 H          -1.461346    0.948776   -2.433531 H         1 <1>         0.059448 
     15 H          -0.801604   -1.420837    1.689829 H         1 <1>         0.029195 
     16 H          -1.249418   -2.707455    0.561713 H         1 <1>         0.029195 
     17 H          -2.516996    3.059745   -2.403301 H         1 <1>         0.053262 
     18 H          -2.287515    3.270181   -0.587635 H         1 <1>         0.053262 
     19 H          -2.647792   -0.630391    0.162011 H         1 <1>         0.029681 
     20 H          -1.677961   -1.134012   -1.242284 H         1 <1>         0.029681 
     21 H           1.155482   -3.510566    0.946885 H         1 <1>         0.209900 
     22 H           2.253131   -0.634751   -1.933266 H         1 <1>         0.025804 
     23 H           3.036721    0.599027   -0.917135 H         1 <1>         0.025804 
     24 H           3.263951   -1.138210   -0.552324 H         1 <1>         0.025804 
     25 H           1.077190   -0.093737    2.233160 H         1 <1>         0.025804 
     26 H           1.918625    1.243007    1.395784 H         1 <1>         0.025804 
     27 H           2.723987   -0.320324    1.687568 H         1 <1>         0.025804 
     28 H          -2.246802    1.712238    1.176059 H         1 <1>         0.026045 
     29 H          -0.885218    0.928267    1.941547 H         1 <1>         0.026045 
     30 H          -0.604719    2.421469    1.022134 H         1 <1>         0.026045 
@<TRIPOS>BOND
     1    1    2 1    
     2    1    3 1    
     3    2    4 1    
     4    2   10 1    
     5    2   11 1    
     6    3    5 1    
     7    3    8 1    
     8    3   12 1    
     9    4    6 1    
    10    4    9 1    
    11    4   13 1    
    12    5    7 2    
    13    5   14 1    
    14    6    8 1    
    15    6   15 1    
    16    6   16 1    
    17    7   17 1    
    18    7   18 1    
    19    8   19 1    
    20    8   20 1    
    21    9   21 1    
    22   10   22 1    
    23   10   23 1    
    24   10   24 1    
    25   11   25 1    
    26   11   26 1    
    27   11   27 1    
    28   12   28 1    
    29   12   29 1    
    30   12   30 1    
@<TRIPOS>SUBSTRUCTURE
     1 ****        1 TEMP              0 ****  ****    0 ROOT 
@<TRIPOS>NORMAL
@<TRIPOS>FF_PBC
FORCE_FIELD_SETUP_FEATURE Force Field Setup information
v1.0  0 0.000000 0.000000 0.000000 0.000000 0.000000 0.000000 NONE 0 0 0 0 1 0 0 0 0 0 0 0 0
