@<TRIPOS>MOLECULE
MOL005825
   22    21     1     1     0
SMALL
GASTEIGER


@<TRIPOS>ATOM
      1 C          -0.609120   -0.459229   -0.000114 C.3       1 <1>        -0.049553 
      2 C           0.721395    0.342358    0.000080 C.3       1 <1>        -0.050709 
      3 C          -1.839894    0.487244    0.000129 C.3       1 <1>        -0.035011 
      4 C           1.952840   -0.604325   -0.000130 C.3       1 <1>        -0.029709 
      5 C          -3.142939   -0.275688    0.000020 C.2       1 <1>        -0.091108 
      6 C           3.284207    0.188608    0.000087 C.3       1 <1>         0.044206 
      7 C          -4.323683    0.354719   -0.000035 C.2       1 <1>        -0.102630 
      8 O           4.371972   -0.753338   -0.000113 O.3       1 <1>        -0.395007 
      9 H          -0.648853   -1.103377   -0.894250 H         1 <1>         0.026823 
     10 H          -0.648838   -1.103805    0.893712 H         1 <1>         0.026823 
     11 H           0.758035    0.986956    0.893731 H         1 <1>         0.026608 
     12 H           0.758046    0.987371   -0.893270 H         1 <1>         0.026608 
     13 H          -1.808868    1.130635    0.894250 H         1 <1>         0.030724 
     14 H          -1.808912    1.131051   -0.893694 H         1 <1>         0.030724 
     15 H           1.926595   -1.250207   -0.893121 H         1 <1>         0.028724 
     16 H           1.926568   -1.250636    0.892549 H         1 <1>         0.028724 
     17 H          -3.130316   -1.367130   -0.000005 H         1 <1>         0.056630 
     18 H           3.334240    0.828744    0.897758 H         1 <1>         0.055696 
     19 H           3.334277    0.829167   -0.897281 H         1 <1>         0.055696 
     20 H          -5.258728   -0.205985   -0.000102 H         1 <1>         0.053174 
     21 H          -4.376541    1.443368   -0.000010 H         1 <1>         0.053174 
     22 H           5.228615   -0.336302    0.000008 H         1 <1>         0.209395 
@<TRIPOS>BOND
     1    1    2 1    
     2    1    3 1    
     3    1    9 1    
     4    1   10 1    
     5    2    4 1    
     6    2   11 1    
     7    2   12 1    
     8    3    5 1    
     9    3   13 1    
    10    3   14 1    
    11    4    6 1    
    12    4   15 1    
    13    4   16 1    
    14    5    7 2    
    15    5   17 1    
    16    6    8 1    
    17    6   18 1    
    18    6   19 1    
    19    7   20 1    
    20    7   21 1    
    21    8   22 1    
@<TRIPOS>SUBSTRUCTURE
     1 ****        1 TEMP              0 ****  ****    0 ROOT 
@<TRIPOS>NORMAL
@<TRIPOS>FF_PBC
FORCE_FIELD_SETUP_FEATURE Force Field Setup information
v1.0  0 0.000000 0.000000 0.000000 0.000000 0.000000 0.000000 NONE 0 0 0 0 1 0 0 0 0 0 0 0 0
