@<TRIPOS>MOLECULE
MOL001931
   14    13     1     1     0
SMALL
GASTEIGER


@<TRIPOS>ATOM
      1 C          -0.478618   -0.500339    0.000119 C.3       1 <1>         0.034069 
      2 C          -1.832960    0.160080   -0.000014 C.2       1 <1>         0.259624 
      3 C           0.682397    0.530243   -0.000094 C.3       1 <1>        -0.030565 
      4 O          -2.873279   -0.675682    0.000038 O.3       1 <1>        -0.331267 
      5 O          -1.968951    1.373690   -0.000155 O.2       1 <1>        -0.265177 
      6 C           2.064160   -0.171981    0.000096 C.3       1 <1>         0.023063 
      7 Cl          3.358133    1.033259   -0.000143 Cl        1 <1>        -0.125400 
      8 H          -0.409087   -1.139699    0.894106 H         1 <1>         0.036636 
      9 H          -0.409081   -1.140075   -0.893599 H         1 <1>         0.036636 
     10 H           0.604546    1.170919   -0.894196 H         1 <1>         0.028130 
     11 H           0.604516    1.171328    0.893711 H         1 <1>         0.028130 
     12 H          -3.701353   -0.207690   -0.000052 H         1 <1>         0.220208 
     13 H           2.179768   -0.801823    0.896081 H         1 <1>         0.042955 
     14 H           2.179809   -0.802229   -0.895598 H         1 <1>         0.042955 
@<TRIPOS>BOND
     1    1    2 1    
     2    1    3 1    
     3    1    8 1    
     4    1    9 1    
     5    2    4 1    
     6    2    5 2    
     7    3    6 1    
     8    3   10 1    
     9    3   11 1    
    10    4   12 1    
    11    6    7 1    
    12    6   13 1    
    13    6   14 1    
@<TRIPOS>SUBSTRUCTURE
     1 ****        1 TEMP              0 ****  ****    0 ROOT 
@<TRIPOS>NORMAL
@<TRIPOS>FF_PBC
FORCE_FIELD_SETUP_FEATURE Force Field Setup information
v1.0  0 0.000000 0.000000 0.000000 0.000000 0.000000 0.000000 NONE 0 0 0 0 1 0 0 0 0 0 0 0 0
