@<TRIPOS>MOLECULE
MOL000920
   29    28     1     1     0
SMALL
GASTEIGER


@<TRIPOS>ATOM
      1 C           4.191894   -1.197136    0.272685 C.3       1 <1>        -0.044050 
      2 C           3.010130   -0.256897    0.160189 C.2       1 <1>        -0.079616 
      3 C           1.751407   -0.724464    0.104304 C.2       1 <1>        -0.085185 
      4 C           0.515577    0.140688   -0.005222 C.3       1 <1>        -0.031638 
      5 C          -0.791310   -0.702163   -0.015522 C.3       1 <1>        -0.017217 
      6 C          -2.101736    0.141617    0.039342 C.3       1 <1>         0.081390 
      7 C          -3.293283   -0.800817    0.073752 C.2       1 <1>        -0.060223 
      8 C          -4.551694   -0.414416    0.322891 C.2       1 <1>        -0.099966 
      9 O          -2.032058    0.912849    1.252204 O.3       1 <1>        -0.384818 
     10 C          -2.232049    1.082658   -1.190324 C.3       1 <1>        -0.032444 
     11 C           3.368301    1.213890    0.117283 C.3       1 <1>        -0.044050 
     12 H           3.901627   -2.258098    0.307314 H         1 <1>         0.027427 
     13 H           4.754779   -0.969177    1.190284 H         1 <1>         0.027427 
     14 H           4.856745   -1.054895   -0.592480 H         1 <1>         0.027427 
     15 H           1.595333   -1.803291    0.138450 H         1 <1>         0.057146 
     16 H           0.592498    0.716190   -0.939854 H         1 <1>         0.030839 
     17 H           0.487587    0.833864    0.850221 H         1 <1>         0.030839 
     18 H          -0.783399   -1.354489    0.873686 H         1 <1>         0.029887 
     19 H          -0.792798   -1.342218   -0.913195 H         1 <1>         0.029887 
     20 H          -3.132495   -1.862740   -0.120621 H         1 <1>         0.059440 
     21 H          -5.361508   -1.144909    0.332345 H         1 <1>         0.053262 
     22 H          -4.821462    0.621493    0.520703 H         1 <1>         0.053262 
     23 H          -2.771077    1.495234    1.383082 H         1 <1>         0.210579 
     24 H          -3.208624    1.589111   -1.188929 H         1 <1>         0.026037 
     25 H          -2.140997    0.507236   -2.124035 H         1 <1>         0.026037 
     26 H          -1.457456    1.862328   -1.170997 H         1 <1>         0.026037 
     27 H           2.507612    1.889249    0.023214 H         1 <1>         0.027427 
     28 H           3.905657    1.481158    1.039415 H         1 <1>         0.027427 
     29 H           4.032699    1.398150   -0.740188 H         1 <1>         0.027427 
@<TRIPOS>BOND
     1    1    2 1    
     2    1   12 1    
     3    1   13 1    
     4    1   14 1    
     5    2    3 2    
     6    2   11 1    
     7    3    4 1    
     8    3   15 1    
     9    4    5 1    
    10    4   16 1    
    11    4   17 1    
    12    5    6 1    
    13    5   18 1    
    14    5   19 1    
    15    6    7 1    
    16    6    9 1    
    17    6   10 1    
    18    7    8 2    
    19    7   20 1    
    20    8   21 1    
    21    8   22 1    
    22    9   23 1    
    23   10   24 1    
    24   10   25 1    
    25   10   26 1    
    26   11   27 1    
    27   11   28 1    
    28   11   29 1    
@<TRIPOS>SUBSTRUCTURE
     1 ****        1 TEMP              0 ****  ****    0 ROOT 
@<TRIPOS>NORMAL
@<TRIPOS>FF_PBC
FORCE_FIELD_SETUP_FEATURE Force Field Setup information
v1.0  0 0.000000 0.000000 0.000000 0.000000 0.000000 0.000000 NONE 0 0 0 0 1 0 0 0 0 0 0 0 0
