@<TRIPOS>MOLECULE
MOL004870
   58    59     1     1     0
SMALL
GASTEIGER


@<TRIPOS>ATOM
      1 C           2.972101    0.995660   -0.221237 C.ar      1 <1>         0.016003 
      2 C           3.272992   -0.295946    0.433508 C.ar      1 <1>         0.078757 
      3 C           2.232289   -1.195632    0.680478 C.ar      1 <1>        -0.028043 
      4 C           0.821302   -0.913115    0.301781 C.ar      1 <1>        -0.038699 
      5 C           0.532332    0.335816   -0.324655 C.ar      1 <1>        -0.010320 
      6 C           1.643669    1.298907   -0.568780 C.ar      1 <1>         0.082195 
      7 C           4.112972    1.981626   -0.516369 C.3       1 <1>        -0.004353 
      8 C           4.062866    2.430328   -1.957578 C.2       1 <1>        -0.080815 
      9 C           4.631316    3.546634   -2.441174 C.2       1 <1>        -0.079306 
     10 C           4.467550    3.938058   -3.894045 C.3       1 <1>        -0.044040 
     11 C           5.463661    4.496535   -1.607760 C.3       1 <1>        -0.044040 
     12 O           4.588915   -0.595675    0.799397 O.3       1 <1>        -0.359459 
     13 O           1.350311    2.528169   -1.164722 O.3       1 <1>        -0.359178 
     14 C          -0.847307    0.836664   -0.800763 C.3       1 <1>        -0.006541 
     15 C          -1.431218    1.780500    0.227827 C.2       1 <1>        -0.080890 
     16 C          -2.727157    1.998430    0.515654 C.2       1 <1>        -0.079307 
     17 C          -3.120981    3.029490    1.553743 C.3       1 <1>        -0.044040 
     18 C          -3.894992    1.295014   -0.141778 C.3       1 <1>        -0.044040 
     19 C          -0.110033   -2.090785    0.682158 C.3       1 <1>        -0.023264 
     20 C          -1.631532   -2.080921    0.388319 C.3       1 <1>        -0.023600 
     21 C          -2.417223   -3.292811    0.924969 C.ar      1 <1>        -0.044460 
     22 C          -3.897788   -3.183044    0.951117 C.ar      1 <1>        -0.026216 
     23 C          -4.694873   -4.243282    1.390138 C.ar      1 <1>         0.102443 
     24 C          -4.064596   -5.507428    1.845554 C.ar      1 <1>         0.102201 
     25 C          -2.665880   -5.617856    1.842785 C.ar      1 <1>        -0.029149 
     26 C          -1.825006   -4.488879    1.376079 C.ar      1 <1>        -0.055972 
     27 O          -4.881002   -6.561797    2.269322 O.3       1 <1>        -0.357275 
     28 O          -6.083672   -4.103018    1.395605 O.3       1 <1>        -0.357268 
     29 H           2.466910   -2.136123    1.168693 H         1 <1>         0.064612 
     30 H           5.094710    1.513845   -0.347514 H         1 <1>         0.035721 
     31 H           3.997766    2.820727    0.186066 H         1 <1>         0.035721 
     32 H           3.514160    1.782451   -2.642857 H         1 <1>         0.057473 
     33 H           3.801709    3.262535   -4.452959 H         1 <1>         0.027427 
     34 H           4.043481    4.952026   -3.947900 H         1 <1>         0.027427 
     35 H           5.449639    3.938116   -4.389844 H         1 <1>         0.027427 
     36 H           5.790668    4.073819   -0.647869 H         1 <1>         0.027427 
     37 H           4.881841    5.409437   -1.412703 H         1 <1>         0.027427 
     38 H           6.371525    4.772760   -2.164561 H         1 <1>         0.027427 
     39 H           4.746904   -1.514275    0.985724 H         1 <1>         0.217326 
     40 H           1.696479    3.264220   -0.673528 H         1 <1>         0.217338 
     41 H          -0.708276    1.442077   -1.708860 H         1 <1>         0.035648 
     42 H          -1.493406    0.028325   -1.128221 H         1 <1>         0.035648 
     43 H          -0.687382    2.360628    0.774449 H         1 <1>         0.057472 
     44 H          -2.280325    3.644205    1.909876 H         1 <1>         0.027427 
     45 H          -3.871563    3.708864    1.121779 H         1 <1>         0.027427 
     46 H          -3.565536    2.521053    2.421892 H         1 <1>         0.027427 
     47 H          -3.657906    0.319692   -0.581481 H         1 <1>         0.027427 
     48 H          -4.693153    1.126813    0.597762 H         1 <1>         0.027427 
     49 H          -4.291936    1.947229   -0.933685 H         1 <1>         0.027427 
     50 H           0.317506   -2.964930    0.165412 H         1 <1>         0.031642 
     51 H           0.001702   -2.228579    1.770676 H         1 <1>         0.031642 
     52 H          -2.073682   -1.172720    0.827185 H         1 <1>         0.031632 
     53 H          -1.804823   -2.120887   -0.697149 H         1 <1>         0.031632 
     54 H          -4.378146   -2.267732    0.623126 H         1 <1>         0.064676 
     55 H          -2.186750   -6.531058    2.178534 H         1 <1>         0.064412 
     56 H          -0.750437   -4.621153    1.388685 H         1 <1>         0.062110 
     57 H          -4.425042   -7.387585    2.387963 H         1 <1>         0.217422 
     58 H          -6.507635   -4.891600    1.718787 H         1 <1>         0.217422 
@<TRIPOS>BOND
     1    1    2 1    
     2    1    6 2    
     3    1    7 1    
     4    2    3 2    
     5    2   12 1    
     6    3    4 1    
     7    3   29 1    
     8    4    5 2    
     9    4   19 1    
    10    5    6 1    
    11    5   14 1    
    12    6   13 1    
    13    7    8 1    
    14    7   30 1    
    15    7   31 1    
    16    8    9 2    
    17    8   32 1    
    18    9   10 1    
    19    9   11 1    
    20   10   33 1    
    21   10   34 1    
    22   10   35 1    
    23   11   36 1    
    24   11   37 1    
    25   11   38 1    
    26   12   39 1    
    27   13   40 1    
    28   14   15 1    
    29   14   41 1    
    30   14   42 1    
    31   15   16 2    
    32   15   43 1    
    33   16   17 1    
    34   16   18 1    
    35   17   44 1    
    36   17   45 1    
    37   17   46 1    
    38   18   47 1    
    39   18   48 1    
    40   18   49 1    
    41   19   20 1    
    42   19   50 1    
    43   19   51 1    
    44   20   21 1    
    45   20   52 1    
    46   20   53 1    
    47   21   22 1    
    48   21   26 2    
    49   22   23 2    
    50   22   54 1    
    51   23   24 1    
    52   23   28 1    
    53   24   25 2    
    54   24   27 1    
    55   25   26 1    
    56   25   55 1    
    57   26   56 1    
    58   27   57 1    
    59   28   58 1    
@<TRIPOS>SUBSTRUCTURE
     1 ****        1 TEMP              0 ****  ****    0 ROOT 
@<TRIPOS>NORMAL
@<TRIPOS>FF_PBC
FORCE_FIELD_SETUP_FEATURE Force Field Setup information
v1.0  0 0.000000 0.000000 0.000000 0.000000 0.000000 0.000000 NONE 0 0 0 0 1 0 0 0 0 0 0 0 0
