@<TRIPOS>MOLECULE
MOL004682
   29    28     1     1     0
SMALL
GASTEIGER


@<TRIPOS>ATOM
      1 C          -2.926526   -4.291850    0.000098 C.3       1 <1>        -0.065276 
      2 C          -1.582713   -3.517595   -0.000149 C.3       1 <1>        -0.055911 
      3 C          -1.816461   -1.982223    0.000067 C.3       1 <1>        -0.053306 
      4 C          -0.471529   -1.205251   -0.000154 C.3       1 <1>        -0.053054 
      5 C          -0.704517    0.330512    0.000112 C.3       1 <1>        -0.052596 
      6 C           0.641837    1.105166   -0.000130 C.3       1 <1>        -0.044055 
      7 C           0.413518    2.641595    0.000305 C.3       1 <1>         0.033189 
      8 C           1.692095    3.440635   -0.000114 C.2       1 <1>         0.261905 
      9 O           1.660849    4.661700   -0.000847 O.2       1 <1>        -0.264985 
     10 O           2.833623    2.735033    0.000379 O.3       1 <1>        -0.318522 
     11 C           4.022902    3.548665   -0.000035 C.3       1 <1>         0.045865 
     12 H          -2.738761   -5.377320   -0.000066 H         1 <1>         0.022978 
     13 H          -3.515721   -4.038670    0.895296 H         1 <1>         0.022978 
     14 H          -3.516163   -4.038474   -0.894753 H         1 <1>         0.022978 
     15 H          -1.002790   -3.802917   -0.893795 H         1 <1>         0.026265 
     16 H          -1.002355   -3.803112    0.893157 H         1 <1>         0.026265 
     17 H          -2.398980   -1.703404    0.893619 H         1 <1>         0.026520 
     18 H          -2.399382   -1.703205   -0.893138 H         1 <1>         0.026520 
     19 H           0.110479   -1.485417   -0.893622 H         1 <1>         0.026528 
     20 H           0.110908   -1.485662    0.892995 H         1 <1>         0.026528 
     21 H          -1.286473    0.610491    0.893730 H         1 <1>         0.026540 
     22 H          -1.286936    0.610737   -0.893090 H         1 <1>         0.026540 
     23 H           1.223705    0.826692   -0.894444 H         1 <1>         0.027004 
     24 H           1.224247    0.826280    0.893733 H         1 <1>         0.027004 
     25 H          -0.162683    2.928832    0.893682 H         1 <1>         0.036606 
     26 H          -0.163462    2.929165   -0.892451 H         1 <1>         0.036606 
     27 H           4.892327    2.874858    0.000345 H         1 <1>         0.052962 
     28 H           4.074507    4.181896   -0.900313 H         1 <1>         0.052962 
     29 H           4.074454    4.182847    0.899580 H         1 <1>         0.052962 
@<TRIPOS>BOND
     1    1    2 1    
     2    1   12 1    
     3    1   13 1    
     4    1   14 1    
     5    2    3 1    
     6    2   15 1    
     7    2   16 1    
     8    3    4 1    
     9    3   17 1    
    10    3   18 1    
    11    4    5 1    
    12    4   19 1    
    13    4   20 1    
    14    5    6 1    
    15    5   21 1    
    16    5   22 1    
    17    6    7 1    
    18    6   23 1    
    19    6   24 1    
    20    7    8 1    
    21    7   25 1    
    22    7   26 1    
    23    8    9 2    
    24    8   10 1    
    25   10   11 1    
    26   11   27 1    
    27   11   28 1    
    28   11   29 1    
@<TRIPOS>SUBSTRUCTURE
     1 ****        1 TEMP              0 ****  ****    0 ROOT 
@<TRIPOS>NORMAL
@<TRIPOS>FF_PBC
FORCE_FIELD_SETUP_FEATURE Force Field Setup information
v1.0  0 0.000000 0.000000 0.000000 0.000000 0.000000 0.000000 NONE 0 0 0 0 1 0 0 0 0 0 0 0 0
