@<TRIPOS>MOLECULE
MOL005399
   80    83     1     1     0
SMALL
GASTEIGER


@<TRIPOS>ATOM
      1 O          -7.365702    0.034501    3.244170 O.3       1 <1>        -0.391474 
      2 C           0.881959    0.247196    1.420113 C.3       1 <1>        -0.025885 
      3 C           0.532211   -1.198797    1.934534 C.3       1 <1>        -0.031972 
      4 C          -0.979104   -1.520566    2.215750 C.3       1 <1>        -0.030653 
      5 C          -1.631341   -0.329843    2.962211 C.3       1 <1>        -0.028547 
      6 C           1.860338    0.011892    0.202967 C.3       1 <1>        -0.032778 
      7 C          -0.424611    0.974884    0.987699 C.3       1 <1>        -0.046813 
      8 C          -3.070341   -0.675005    3.502002 C.3       1 <1>        -0.007820 
      9 C           1.224377   -2.203042    0.978563 C.3       1 <1>        -0.049160 
     10 C          -1.575215    0.933349    2.040965 C.3       1 <1>        -0.048644 
     11 C           1.445603   -1.393494   -0.312858 C.3       1 <1>        -0.049187 
     12 C          -1.880886   -1.970863    1.026344 C.3       1 <1>        -0.031102 
     13 C           1.969964    1.082393   -0.952249 C.3       1 <1>        -0.040533 
     14 C           1.574422    1.057138    2.568698 C.3       1 <1>        -0.059038 
     15 C          -3.909532   -1.250476    2.375149 C.2       1 <1>        -0.064841 
     16 C          -3.715161    0.598776    4.151876 C.3       1 <1>        -0.041314 
     17 C          -3.360887   -1.813097    1.286684 C.2       1 <1>        -0.083874 
     18 C          -3.008398   -1.799953    4.588259 C.3       1 <1>        -0.055578 
     19 C          -5.416519   -1.211343    2.545093 C.3       1 <1>        -0.005079 
     20 C          -5.245317    0.501286    4.391528 C.3       1 <1>        -0.025766 
     21 C           2.834637    0.535075   -2.139331 C.3       1 <1>        -0.049933 
     22 C          -5.943470    0.148753    3.055619 C.3       1 <1>         0.058951 
     23 C           2.549489    2.440724   -0.454649 C.3       1 <1>        -0.062146 
     24 C           3.049629    1.520290   -3.331438 C.3       1 <1>        -0.049734 
     25 C           3.484032    0.885784   -4.698387 C.3       1 <1>        -0.038944 
     26 C           2.318511    0.388996   -5.631928 C.3       1 <1>        -0.043894 
     27 C           4.615630   -0.180901   -4.540791 C.3       1 <1>        -0.052828 
     28 C           1.423742   -0.741462   -5.052380 C.3       1 <1>        -0.062414 
     29 C           1.408696    1.544406   -6.149047 C.3       1 <1>        -0.062414 
     30 C           5.939786    0.404466   -3.974990 C.3       1 <1>        -0.065017 
     31 H          -7.769090    0.843382    3.542990 H         1 <1>         0.209789 
     32 H           1.026888   -1.335931    2.914655 H         1 <1>         0.030896 
     33 H          -0.956511   -2.390362    2.892125 H         1 <1>         0.030949 
     34 H          -1.012123   -0.128933    3.851384 H         1 <1>         0.031195 
     35 H           2.879164   -0.115338    0.606018 H         1 <1>         0.030870 
     36 H          -0.215794    2.031188    0.762256 H         1 <1>         0.027078 
     37 H          -0.775423    0.551955    0.040458 H         1 <1>         0.027078 
     38 H           2.217453   -2.482772    1.374969 H         1 <1>         0.026828 
     39 H           0.665046   -3.134448    0.807229 H         1 <1>         0.026828 
     40 H          -1.474978    1.826652    2.681910 H         1 <1>         0.026846 
     41 H          -2.519202    1.025082    1.477847 H         1 <1>         0.026846 
     42 H           2.215572   -1.904540   -0.913973 H         1 <1>         0.026828 
     43 H           0.519942   -1.330701   -0.903878 H         1 <1>         0.026828 
     44 H          -1.709260   -3.038217    0.811648 H         1 <1>         0.031025 
     45 H          -1.678061   -1.436247    0.096002 H         1 <1>         0.031025 
     46 H           0.971816    1.278820   -1.374571 H         1 <1>         0.030096 
     47 H           2.513106    0.571805    2.877584 H         1 <1>         0.023524 
     48 H           1.817523    2.086470    2.290086 H         1 <1>         0.023524 
     49 H           0.929732    1.120619    3.454885 H         1 <1>         0.023524 
     50 H          -3.203777    0.830442    5.100211 H         1 <1>         0.027446 
     51 H          -3.612868    1.480676    3.506830 H         1 <1>         0.027446 
     52 H          -4.013760   -2.210683    0.507606 H         1 <1>         0.057190 
     53 H          -3.970363   -1.938091    5.096729 H         1 <1>         0.023820 
     54 H          -2.758616   -2.782231    4.163885 H         1 <1>         0.023820 
     55 H          -2.263079   -1.555302    5.360007 H         1 <1>         0.023820 
     56 H          -5.944869   -1.436737    1.604894 H         1 <1>         0.033510 
     57 H          -5.697715   -1.990732    3.269569 H         1 <1>         0.033510 
     58 H          -5.623696    1.472798    4.752719 H         1 <1>         0.029039 
     59 H          -5.505432   -0.245166    5.155585 H         1 <1>         0.029039 
     60 H           2.332541   -0.341925   -2.553855 H         1 <1>         0.026802 
     61 H           3.806218    0.205759   -1.740495 H         1 <1>         0.026802 
     62 H          -5.726275    0.919220    2.293336 H         1 <1>         0.059621 
     63 H           2.689370    3.159756   -1.271867 H         1 <1>         0.023250 
     64 H           1.870016    2.945516    0.238206 H         1 <1>         0.023250 
     65 H           3.519828    2.284136    0.040323 H         1 <1>         0.023250 
     66 H           3.838963    2.230832   -3.035844 H         1 <1>         0.026810 
     67 H           2.131561    2.103887   -3.481901 H         1 <1>         0.026810 
     68 H           3.946943    1.703098   -5.280703 H         1 <1>         0.030319 
     69 H           2.796417   -0.027639   -6.537385 H         1 <1>         0.029814 
     70 H           4.287525   -1.014956   -3.902884 H         1 <1>         0.026538 
     71 H           4.859539   -0.604864   -5.529203 H         1 <1>         0.026538 
     72 H           0.776220   -0.356091   -4.251157 H         1 <1>         0.023242 
     73 H           2.028709   -1.576390   -4.669856 H         1 <1>         0.023242 
     74 H           0.766165   -1.140656   -5.840931 H         1 <1>         0.023242 
     75 H           0.740170    1.171879   -6.941619 H         1 <1>         0.023242 
     76 H           2.010419    2.362047   -6.575073 H         1 <1>         0.023242 
     77 H           0.773998    1.956347   -5.351852 H         1 <1>         0.023242 
     78 H           6.711483   -0.381275   -3.943331 H         1 <1>         0.022986 
     79 H           6.305887    1.219853   -4.618168 H         1 <1>         0.022986 
     80 H           5.816120    0.795104   -2.955393 H         1 <1>         0.022986 
@<TRIPOS>BOND
     1   22    1 1    
     2    1   31 1    
     3    3    2 1    
     4    2    6 1    
     5    7    2 1    
     6    2   14 1    
     7    4    3 1    
     8    3    9 1    
     9    3   32 1    
    10    5    4 1    
    11   12    4 1    
    12    4   33 1    
    13    8    5 1    
    14    5   10 1    
    15    5   34 1    
    16   11    6 1    
    17    6   13 1    
    18    6   35 1    
    19   10    7 1    
    20    7   36 1    
    21    7   37 1    
    22   15    8 1    
    23    8   16 1    
    24    8   18 1    
    25    9   11 1    
    26    9   38 1    
    27    9   39 1    
    28   10   40 1    
    29   10   41 1    
    30   11   42 1    
    31   11   43 1    
    32   17   12 1    
    33   12   44 1    
    34   12   45 1    
    35   13   21 1    
    36   13   23 1    
    37   13   46 1    
    38   14   47 1    
    39   14   48 1    
    40   14   49 1    
    41   15   17 2    
    42   19   15 1    
    43   16   20 1    
    44   16   50 1    
    45   16   51 1    
    46   17   52 1    
    47   18   53 1    
    48   18   54 1    
    49   18   55 1    
    50   19   22 1    
    51   19   56 1    
    52   19   57 1    
    53   20   22 1    
    54   20   58 1    
    55   20   59 1    
    56   21   24 1    
    57   21   60 1    
    58   21   61 1    
    59   22   62 1    
    60   23   63 1    
    61   23   64 1    
    62   23   65 1    
    63   24   25 1    
    64   24   66 1    
    65   24   67 1    
    66   25   26 1    
    67   25   27 1    
    68   25   68 1    
    69   26   28 1    
    70   26   29 1    
    71   26   69 1    
    72   27   30 1    
    73   27   70 1    
    74   27   71 1    
    75   28   72 1    
    76   28   73 1    
    77   28   74 1    
    78   29   75 1    
    79   29   76 1    
    80   29   77 1    
    81   30   78 1    
    82   30   79 1    
    83   30   80 1    
@<TRIPOS>SUBSTRUCTURE
     1 ****        2 TEMP              0 ****  ****    0 ROOT 
@<TRIPOS>NORMAL
@<TRIPOS>FF_PBC
FORCE_FIELD_SETUP_FEATURE Force Field Setup information
v1.0  0 0.000000 0.000000 0.000000 0.000000 0.000000 0.000000 NONE 0 0 0 0 1 0 0 0 0 0 0 0 0
