@<TRIPOS>MOLECULE
MOL005285
   85    88     1     1     0
SMALL
GASTEIGER


@<TRIPOS>ATOM
      1 C          -0.277187   -1.714686   -0.141621 C.3       1 <1>        -0.022908 
      2 C           1.030280   -0.869040   -0.500165 C.3       1 <1>        -0.020884 
      3 C          -1.480424   -0.711245    0.078108 C.3       1 <1>        -0.027109 
      4 C          -0.663069   -2.662445   -1.325298 C.3       1 <1>        -0.046558 
      5 C          -0.016191   -2.613064    1.131858 C.3       1 <1>        -0.058782 
      6 C           1.346850    0.047664    0.728887 C.3       1 <1>        -0.003645 
      7 C           2.365333   -1.685789   -0.661755 C.3       1 <1>        -0.046422 
      8 C           0.927966   -0.016905   -1.833220 C.3       1 <1>        -0.058710 
      9 C          -2.944656   -1.324480    0.189442 C.3       1 <1>        -0.025167 
     10 C          -1.130048    0.398610    1.135867 C.3       1 <1>        -0.022712 
     11 C          -2.060863   -3.335429   -1.193244 C.3       1 <1>        -0.048618 
     12 C           2.868005    0.390279    0.610497 C.3       1 <1>        -0.006683 
     13 C           0.243321    1.118899    0.939048 C.3       1 <1>         0.059199 
     14 C           3.391064   -1.046757    0.319635 C.3       1 <1>        -0.046740 
     15 C          -3.195613   -2.276306   -1.042027 C.3       1 <1>        -0.027844 
     16 C          -4.008256   -0.158335    0.112863 C.3       1 <1>        -0.044729 
     17 C          -3.144681   -2.064048    1.555678 C.3       1 <1>        -0.059018 
     18 C           3.562376    1.099756    1.828825 C.3       1 <1>         0.066753 
     19 O           0.500292    1.858416    2.148358 O.3       1 <1>        -0.391475 
     20 C          -4.650627   -2.880564   -1.211837 C.3       1 <1>        -0.005589 
     21 C          -5.248431   -0.426213   -0.790457 C.3       1 <1>        -0.025831 
     22 C           3.425886    2.661745    1.740594 C.3       1 <1>        -0.020552 
     23 C          -5.748097   -1.886705   -0.690252 C.3       1 <1>         0.060637 
     24 C           4.429456    3.389856    0.795704 C.3       1 <1>        -0.031929 
     25 O          -6.197027   -2.191030    0.642974 O.3       1 <1>        -0.391248 
     26 C           4.098157    4.863299    0.686132 C.2       1 <1>        -0.085195 
     27 C           4.284381    5.621871   -0.406954 C.2       1 <1>        -0.079616 
     28 C           3.881777    7.081151   -0.432152 C.3       1 <1>        -0.044050 
     29 C           4.900607    5.092853   -1.683741 C.3       1 <1>        -0.044050 
     30 H          -1.567020   -0.158124   -0.860117 H         1 <1>         0.031235 
     31 H           1.294122   -0.518150    1.668253 H         1 <1>         0.033467 
     32 H          -3.063991   -1.619237   -1.916658 H         1 <1>         0.031210 
     33 O           2.925000    0.610041    3.024260 O.3       1 <1>        -0.388552 
     34 C           5.070354    0.723821    1.943675 C.3       1 <1>        -0.035798 
     35 C          -4.935327   -3.137900   -2.735173 C.3       1 <1>        -0.057190 
     36 C          -4.838155   -4.262938   -0.509625 C.3       1 <1>        -0.057190 
     37 H           0.108241   -3.439027   -1.450903 H         1 <1>         0.027087 
     38 H          -0.725669   -2.108296   -2.269645 H         1 <1>         0.027087 
     39 H          -0.451254   -3.614980    1.061644 H         1 <1>         0.023533 
     40 H          -0.399474   -2.168203    2.056223 H         1 <1>         0.023533 
     41 H           1.042066   -2.810907    1.330941 H         1 <1>         0.023533 
     42 H           2.791421   -1.596302   -1.674838 H         1 <1>         0.027088 
     43 H           2.277944   -2.770029   -0.505102 H         1 <1>         0.027088 
     44 H           0.103598    0.697976   -1.906641 H         1 <1>         0.023534 
     45 H           1.823285    0.588133   -2.015075 H         1 <1>         0.023534 
     46 H           0.865479   -0.661793   -2.719424 H         1 <1>         0.023534 
     47 H          -1.895236    1.187330    1.162560 H         1 <1>         0.029314 
     48 H          -1.096671   -0.018904    2.148939 H         1 <1>         0.029314 
     49 H          -2.202808   -3.924266   -2.112297 H         1 <1>         0.026846 
     50 H          -2.095082   -4.062491   -0.375024 H         1 <1>         0.026846 
     51 H           3.076275    1.007477   -0.268540 H         1 <1>         0.033201 
     52 H           0.229473    1.821459    0.091067 H         1 <1>         0.059620 
     53 H           3.393519   -1.630518    1.255593 H         1 <1>         0.026910 
     54 H           4.413576   -1.058738   -0.093250 H         1 <1>         0.026910 
     55 H          -4.356183    0.100278    1.126656 H         1 <1>         0.027149 
     56 H          -3.592979    0.769808   -0.310493 H         1 <1>         0.027149 
     57 H          -4.194125   -2.281755    1.758489 H         1 <1>         0.023525 
     58 H          -2.619957   -3.019660    1.622041 H         1 <1>         0.023525 
     59 H          -2.824733   -1.445385    2.402031 H         1 <1>         0.023525 
     60 H          -0.139835    2.539793    2.328012 H         1 <1>         0.209789 
     61 H          -5.008765   -0.216311   -1.846270 H         1 <1>         0.029037 
     62 H          -6.061036    0.266030   -0.510731 H         1 <1>         0.029037 
     63 H           2.423939    2.931725    1.386055 H         1 <1>         0.029579 
     64 H           3.552000    3.092751    2.746712 H         1 <1>         0.029579 
     65 H          -6.656450   -1.979128   -1.313954 H         1 <1>         0.059852 
     66 H           5.453668    3.329204    1.194254 H         1 <1>         0.030829 
     67 H           4.409276    2.912773   -0.193191 H         1 <1>         0.030829 
     68 H          -6.870851   -1.603240    0.970676 H         1 <1>         0.209800 
     69 H           3.677416    5.329185    1.578124 H         1 <1>         0.057146 
     70 H           3.366581    7.403826    0.485278 H         1 <1>         0.027427 
     71 H           4.778038    7.707048   -0.558719 H         1 <1>         0.027427 
     72 H           3.204362    7.256015   -1.281634 H         1 <1>         0.027427 
     73 H           5.318903    5.910860   -2.289867 H         1 <1>         0.027427 
     74 H           5.722223    4.390991   -1.477861 H         1 <1>         0.027427 
     75 H           4.125885    4.583506   -2.276113 H         1 <1>         0.027427 
     76 H           3.270349    0.975500    3.831229 H         1 <1>         0.210159 
     77 H           5.596455    0.883182    0.990796 H         1 <1>         0.025730 
     78 H           5.556714    1.331652    2.721911 H         1 <1>         0.025730 
     79 H           5.193060   -0.329531    2.234644 H         1 <1>         0.025730 
     80 H          -5.927252   -3.593960   -2.880435 H         1 <1>         0.023587 
     81 H          -4.209180   -3.822925   -3.191981 H         1 <1>         0.023587 
     82 H          -4.917064   -2.201234   -3.312177 H         1 <1>         0.023587 
     83 H          -4.236729   -5.047075   -0.992636 H         1 <1>         0.023587 
     84 H          -5.892265   -4.574732   -0.572911 H         1 <1>         0.023587 
     85 H          -4.565147   -4.238010    0.551498 H         1 <1>         0.023587 
@<TRIPOS>BOND
     1    1    2 1    
     2    1    3 1    
     3    1    4 1    
     4    1    5 1    
     5    2    6 1    
     6    2    7 1    
     7    2    8 1    
     8    3    9 1    
     9    3   10 1    
    10    3   30 1    
    11    4   11 1    
    12    4   37 1    
    13    4   38 1    
    14    5   39 1    
    15    5   40 1    
    16    5   41 1    
    17    6   12 1    
    18    6   13 1    
    19    6   31 1    
    20    7   14 1    
    21    7   42 1    
    22    7   43 1    
    23    8   44 1    
    24    8   45 1    
    25    8   46 1    
    26    9   15 1    
    27    9   16 1    
    28    9   17 1    
    29   10   13 1    
    30   10   47 1    
    31   10   48 1    
    32   11   15 1    
    33   11   49 1    
    34   11   50 1    
    35   12   14 1    
    36   12   18 1    
    37   12   51 1    
    38   13   19 1    
    39   13   52 1    
    40   14   53 1    
    41   14   54 1    
    42   15   20 1    
    43   15   32 1    
    44   16   21 1    
    45   16   55 1    
    46   16   56 1    
    47   17   57 1    
    48   17   58 1    
    49   17   59 1    
    50   18   22 1    
    51   18   33 1    
    52   18   34 1    
    53   19   60 1    
    54   20   23 1    
    55   20   35 1    
    56   20   36 1    
    57   21   23 1    
    58   21   61 1    
    59   21   62 1    
    60   22   24 1    
    61   22   63 1    
    62   22   64 1    
    63   23   25 1    
    64   23   65 1    
    65   24   26 1    
    66   24   66 1    
    67   24   67 1    
    68   25   68 1    
    69   26   27 2    
    70   26   69 1    
    71   27   28 1    
    72   27   29 1    
    73   28   70 1    
    74   28   71 1    
    75   28   72 1    
    76   29   73 1    
    77   29   74 1    
    78   29   75 1    
    79   33   76 1    
    80   34   77 1    
    81   34   78 1    
    82   34   79 1    
    83   35   80 1    
    84   35   81 1    
    85   35   82 1    
    86   36   83 1    
    87   36   84 1    
    88   36   85 1    
@<TRIPOS>SUBSTRUCTURE
     1 ****        1 TEMP              0 ****  ****    0 ROOT 
@<TRIPOS>NORMAL
@<TRIPOS>FF_PBC
FORCE_FIELD_SETUP_FEATURE Force Field Setup information
v1.0  0 0.000000 0.000000 0.000000 0.000000 0.000000 0.000000 NONE 0 0 0 0 1 0 0 0 0 0 0 0 0
