@<TRIPOS>MOLECULE
MOL011148
   39    40     1     1     0
SMALL
GASTEIGER


@<TRIPOS>ATOM
      1 C           0.584776   -0.403826   -0.964468 C.3       1 <1>        -0.022164 
      2 C           0.070821   -1.847201   -0.698290 C.3       1 <1>        -0.014216 
      3 C           1.241317   -2.805553   -0.763772 C.2       1 <1>        -0.072906 
      4 C           2.065132   -2.720459   -1.821161 C.2       1 <1>        -0.084465 
      5 C           1.804640   -1.659329   -2.875197 C.3       1 <1>        -0.031135 
      6 C           0.551890   -0.825552   -2.468693 C.3       1 <1>        -0.031092 
      7 C          -0.544837   -1.868527   -2.120953 C.3       1 <1>        -0.042376 
      8 C           1.394095   -3.790329    0.366272 C.3       1 <1>        -0.043506 
      9 C          -0.472842    0.711466   -0.647771 C.3       1 <1>        -0.043370 
     10 C          -0.642088    1.026934    0.867158 C.3       1 <1>        -0.034006 
     11 C          -1.786520    1.982846    1.135091 C.2       1 <1>        -0.085268 
     12 C          -1.812558    2.892557    2.124555 C.2       1 <1>        -0.079617 
     13 C          -2.986100    3.831844    2.306194 C.3       1 <1>        -0.044050 
     14 C          -0.686356    3.049442    3.124249 C.3       1 <1>        -0.044050 
     15 C           1.968220   -0.031808   -0.339781 C.3       1 <1>        -0.058746 
     16 H          -0.638523   -2.002573    0.129085 H         1 <1>         0.035097 
     17 H           2.917602   -3.390313   -1.933130 H         1 <1>         0.057172 
     18 H           2.677255   -0.999105   -2.996712 H         1 <1>         0.031025 
     19 H           1.618513   -2.151818   -3.842789 H         1 <1>         0.031025 
     20 H           0.265598   -0.048710   -3.196362 H         1 <1>         0.030934 
     21 H          -1.572819   -1.479226   -2.168822 H         1 <1>         0.027407 
     22 H          -0.506424   -2.834194   -2.652645 H         1 <1>         0.027407 
     23 H           2.279912   -4.430239    0.237987 H         1 <1>         0.027445 
     24 H           0.501002   -4.431120    0.413354 H         1 <1>         0.027445 
     25 H           1.491744   -3.242019    1.315282 H         1 <1>         0.027445 
     26 H          -1.464571    0.449870   -1.039677 H         1 <1>         0.027372 
     27 H          -0.162850    1.637521   -1.158838 H         1 <1>         0.027372 
     28 H           0.293984    1.465355    1.238402 H         1 <1>         0.030757 
     29 H          -0.846197    0.099676    1.423449 H         1 <1>         0.030757 
     30 H          -2.649270    1.912092    0.471341 H         1 <1>         0.057145 
     31 H          -2.629143    4.871494    2.248292 H         1 <1>         0.027427 
     32 H          -3.437920    3.666041    3.296130 H         1 <1>         0.027427 
     33 H          -3.770389    3.695718    1.545894 H         1 <1>         0.027427 
     34 H          -0.333162    2.069092    3.478370 H         1 <1>         0.027427 
     35 H           0.148379    3.589817    2.653018 H         1 <1>         0.027427 
     36 H          -1.007432    3.620091    4.009087 H         1 <1>         0.027427 
     37 H           2.820508   -0.646013   -0.651512 H         1 <1>         0.023534 
     38 H           1.910006   -0.133044    0.753264 H         1 <1>         0.023534 
     39 H           2.215138    1.010625   -0.590959 H         1 <1>         0.023534 
@<TRIPOS>BOND
     1    1    2 1    
     2    1    6 1    
     3    1    9 1    
     4    1   15 1    
     5    2    3 1    
     6    2    7 1    
     7    2   16 1    
     8    3    4 2    
     9    3    8 1    
    10    4    5 1    
    11    4   17 1    
    12    5    6 1    
    13    5   18 1    
    14    5   19 1    
    15    6    7 1    
    16    6   20 1    
    17    7   21 1    
    18    7   22 1    
    19    8   23 1    
    20    8   24 1    
    21    8   25 1    
    22    9   10 1    
    23    9   26 1    
    24    9   27 1    
    25   10   11 1    
    26   10   28 1    
    27   10   29 1    
    28   11   12 2    
    29   11   30 1    
    30   12   13 1    
    31   12   14 1    
    32   13   31 1    
    33   13   32 1    
    34   13   33 1    
    35   14   34 1    
    36   14   35 1    
    37   14   36 1    
    38   15   37 1    
    39   15   38 1    
    40   15   39 1    
@<TRIPOS>SUBSTRUCTURE
     1 ****        1 TEMP              0 ****  ****    0 ROOT 
@<TRIPOS>NORMAL
@<TRIPOS>FF_PBC
FORCE_FIELD_SETUP_FEATURE Force Field Setup information
v1.0  0 0.000000 0.000000 0.000000 0.000000 0.000000 0.000000 NONE 0 0 0 0 1 0 0 0 0 0 0 0 0
