@<TRIPOS>MOLECULE
MOL012297
   50    53     1     1     0
SMALL
GASTEIGER


@<TRIPOS>ATOM
      1 O           3.162357   -0.104448    0.999577 O.3       1 <1>        -0.361023 
      2 O           1.716340    0.082352   -2.446012 O.3       1 <1>        -0.386221 
      3 O           4.444785   -0.606368   -2.975564 O.3       1 <1>        -0.386477 
      4 O           5.898127   -1.877186   -0.815759 O.3       1 <1>        -0.386490 
      5 O           4.632073   -1.401433    3.185285 O.3       1 <1>        -0.392367 
      6 O          -0.830915   -0.389983   -0.417828 O.3       1 <1>        -0.314993 
      7 O           2.904560    2.438428    1.200845 O.3       1 <1>        -0.359390 
      8 O          -3.572885    2.264763    0.845097 O.2       1 <1>        -0.286478 
      9 O          -8.717801   -1.288851   -0.664522 O.3       1 <1>        -0.359832 
     10 C           2.712455    0.170208   -1.406613 C.3       1 <1>         0.113849 
     11 C           3.805223   -0.888346   -1.716959 C.3       1 <1>         0.112059 
     12 C           2.112703   -0.106968    0.000273 C.3       1 <1>         0.117286 
     13 C           4.872334   -0.889036   -0.592491 C.3       1 <1>         0.111744 
     14 C           4.180364   -1.106494    0.779488 C.3       1 <1>         0.110816 
     15 C           1.095005    0.970983    0.419078 C.ar      1 <1>         0.044493 
     16 C           5.222072   -1.027827    1.927816 C.3       1 <1>         0.072938 
     17 C          -0.364413    0.764328    0.224936 C.ar      1 <1>         0.101302 
     18 C           1.546965    2.180682    1.020058 C.ar      1 <1>         0.080818 
     19 C          -1.269418    1.726230    0.682119 C.ar      1 <1>         0.053260 
     20 C           0.567395    3.194494    1.479020 C.ar      1 <1>        -0.030750 
     21 C          -0.804546    2.976089    1.325791 C.ar      1 <1>        -0.045961 
     22 C          -2.736169    1.447093    0.494662 C.2       1 <1>         0.198102 
     23 C          -3.106442    0.169979   -0.129229 C.2       1 <1>         0.052566 
     24 C          -2.143898   -0.662324   -0.557452 C.2       1 <1>         0.058265 
     25 C          -4.571269   -0.190267   -0.275147 C.ar      1 <1>        -0.012138 
     26 C          -5.471991    0.052733    0.782509 C.ar      1 <1>        -0.051421 
     27 C          -5.080502   -0.803699   -1.526203 C.ar      1 <1>        -0.051421 
     28 C          -6.903918   -0.312246    0.661962 C.ar      1 <1>        -0.031363 
     29 C          -6.437592   -1.152646   -1.643658 C.ar      1 <1>        -0.031363 
     30 C          -7.379861   -0.914481   -0.524308 C.ar      1 <1>         0.072617 
     31 H           3.187598    1.167882   -1.410119 H         1 <1>         0.064945 
     32 H           3.337611   -1.888033   -1.760717 H         1 <1>         0.064684 
     33 H           1.598788   -1.081339    0.002543 H         1 <1>         0.067491 
     34 H           5.368977    0.095716   -0.589861 H         1 <1>         0.064671 
     35 H           3.727456   -2.111286    0.818097 H         1 <1>         0.064591 
     36 H           5.644524   -0.011195    1.989155 H         1 <1>         0.058369 
     37 H           6.049124   -1.731960    1.739620 H         1 <1>         0.058369 
     38 H           1.022486    0.729234   -2.360584 H         1 <1>         0.210016 
     39 H           3.823760   -0.605738   -3.698271 H         1 <1>         0.210004 
     40 H           5.566621   -2.767728   -0.870854 H         1 <1>         0.210004 
     41 H           0.928763    4.106043    1.943064 H         1 <1>         0.064351 
     42 H          -1.523866    3.711898    1.673027 H         1 <1>         0.062621 
     43 H           3.901325   -0.837294    3.420490 H         1 <1>         0.209508 
     44 H          -2.401523   -1.609495   -1.031326 H         1 <1>         0.089749 
     45 H           3.396718    1.637322    1.360419 H         1 <1>         0.217327 
     46 H          -5.125519    0.501010    1.705843 H         1 <1>         0.062443 
     47 H          -4.409011   -0.981665   -2.361461 H         1 <1>         0.062443 
     48 H          -7.575365   -0.115729    1.492485 H         1 <1>         0.064338 
     49 H          -6.807424   -1.598433   -2.558136 H         1 <1>         0.064338 
     50 H          -9.192979   -1.327067    0.158614 H         1 <1>         0.217313 
@<TRIPOS>BOND
     1   12    1 1    
     2    1   14 1    
     3   10    2 1    
     4    2   38 1    
     5   11    3 1    
     6    3   39 1    
     7   13    4 1    
     8    4   40 1    
     9   16    5 1    
    10    5   43 1    
    11    6   17 1    
    12   24    6 1    
    13   18    7 1    
    14    7   45 1    
    15   22    8 2    
    16   30    9 1    
    17    9   50 1    
    18   10   11 1    
    19   12   10 1    
    20   10   31 1    
    21   11   13 1    
    22   11   32 1    
    23   15   12 1    
    24   12   33 1    
    25   14   13 1    
    26   13   34 1    
    27   14   16 1    
    28   14   35 1    
    29   17   15 1    
    30   15   18 2    
    31   16   36 1    
    32   16   37 1    
    33   19   17 2    
    34   20   18 1    
    35   19   21 1    
    36   22   19 1    
    37   21   20 2    
    38   20   41 1    
    39   21   42 1    
    40   23   22 1    
    41   23   24 2    
    42   25   23 1    
    43   24   44 1    
    44   26   25 2    
    45   25   27 1    
    46   28   26 1    
    47   26   46 1    
    48   27   29 2    
    49   27   47 1    
    50   28   30 2    
    51   28   48 1    
    52   29   30 1    
    53   29   49 1    
@<TRIPOS>SUBSTRUCTURE
     1 ****        2 TEMP              0 ****  ****    0 ROOT 
@<TRIPOS>NORMAL
@<TRIPOS>FF_PBC
FORCE_FIELD_SETUP_FEATURE Force Field Setup information
v1.0  0 0.000000 0.000000 0.000000 0.000000 0.000000 0.000000 NONE 0 0 0 0 1 0 0 0 0 0 0 0 0
