@<TRIPOS>MOLECULE
MOL003508
   33    32     1     1     0
SMALL
GASTEIGER


@<TRIPOS>ATOM
      1 C          -2.725092    4.834632   -0.000115 C.3       1 <1>         0.044206 
      2 C          -1.397330    4.035829    0.000108 C.3       1 <1>        -0.029718 
      3 C          -1.650833    2.503339   -0.000113 C.3       1 <1>        -0.050987 
      4 C          -0.316190    1.708667    0.000116 C.3       1 <1>        -0.052986 
      5 C          -0.570478    0.176182   -0.000113 C.3       1 <1>        -0.053056 
      6 C           0.763368   -0.619918    0.000119 C.3       1 <1>        -0.053057 
      7 C           0.508114   -2.152236   -0.000116 C.3       1 <1>        -0.053065 
      8 C           1.841762   -2.948763    0.000118 C.3       1 <1>        -0.053306 
      9 C           1.585972   -4.480701   -0.000124 C.3       1 <1>        -0.055911 
     10 C           2.917882   -5.275336    0.000111 C.3       1 <1>        -0.065276 
     11 O          -2.409893    6.238552    0.000102 O.3       1 <1>        -0.395007 
     12 H          -3.312747    4.575989   -0.897820 H         1 <1>         0.055696 
     13 H          -3.313159    4.575804    0.897266 H         1 <1>         0.055696 
     14 H          -0.815575    4.317643    0.893104 H         1 <1>         0.028724 
     15 H          -0.815164    4.317832   -0.892559 H         1 <1>         0.028724 
     16 H          -2.236480    2.231566   -0.893744 H         1 <1>         0.026599 
     17 H          -2.236896    2.231378    0.893186 H         1 <1>         0.026599 
     18 H           0.269614    1.980829    0.893602 H         1 <1>         0.026529 
     19 H           0.270034    1.981023   -0.893036 H         1 <1>         0.026529 
     20 H          -1.156400   -0.095569   -0.893562 H         1 <1>         0.026528 
     21 H          -1.156825   -0.095764    0.892997 H         1 <1>         0.026528 
     22 H           1.349456   -0.348546    0.893577 H         1 <1>         0.026528 
     23 H           1.349882   -0.348346   -0.892998 H         1 <1>         0.026528 
     24 H          -0.077879   -2.423943   -0.893599 H         1 <1>         0.026528 
     25 H          -0.078309   -2.424144    0.893022 H         1 <1>         0.026528 
     26 H           2.428250   -2.678373    0.893674 H         1 <1>         0.026520 
     27 H           2.428684   -2.678166   -0.893089 H         1 <1>         0.026520 
     28 H           1.001924   -4.757304   -0.893811 H         1 <1>         0.026265 
     29 H           1.001486   -4.757511    0.893213 H         1 <1>         0.026265 
     30 H           2.713445   -6.357729   -0.000066 H         1 <1>         0.022978 
     31 H           3.510914   -5.031296    0.895311 H         1 <1>         0.022978 
     32 H           3.511354   -5.031086   -0.894740 H         1 <1>         0.022978 
     33 H          -3.182688    6.795770   -0.000020 H         1 <1>         0.209395 
@<TRIPOS>BOND
     1    1    2 1    
     2    1   11 1    
     3    1   12 1    
     4    1   13 1    
     5    2    3 1    
     6    2   14 1    
     7    2   15 1    
     8    3    4 1    
     9    3   16 1    
    10    3   17 1    
    11    4    5 1    
    12    4   18 1    
    13    4   19 1    
    14    5    6 1    
    15    5   20 1    
    16    5   21 1    
    17    6    7 1    
    18    6   22 1    
    19    6   23 1    
    20    7    8 1    
    21    7   24 1    
    22    7   25 1    
    23    8    9 1    
    24    8   26 1    
    25    8   27 1    
    26    9   10 1    
    27    9   28 1    
    28    9   29 1    
    29   10   30 1    
    30   10   31 1    
    31   10   32 1    
    32   11   33 1    
@<TRIPOS>SUBSTRUCTURE
     1 ****        1 TEMP              0 ****  ****    0 ROOT 
@<TRIPOS>NORMAL
@<TRIPOS>FF_PBC
FORCE_FIELD_SETUP_FEATURE Force Field Setup information
v1.0  0 0.000000 0.000000 0.000000 0.000000 0.000000 0.000000 NONE 0 0 0 0 1 0 0 0 0 0 0 0 0
