@<TRIPOS>MOLECULE
MOL000867
   53    52     1     1     0
SMALL
GASTEIGER


@<TRIPOS>ATOM
      1 C         -10.259521   -0.407665   -0.000084 C.3       1 <1>        -0.065276 
      2 C          -8.982935    0.473210    0.000153 C.3       1 <1>        -0.055911 
      3 C          -7.697129   -0.397874   -0.000102 C.3       1 <1>        -0.053306 
      4 C          -6.416202    0.480853    0.000125 C.3       1 <1>        -0.053065 
      5 C          -5.131798   -0.392920   -0.000114 C.3       1 <1>        -0.053057 
      6 C          -3.849293    0.483573    0.000136 C.3       1 <1>        -0.053057 
      7 C          -2.565937   -0.391683   -0.000108 C.3       1 <1>        -0.053057 
      8 C          -1.283062    0.484211    0.000133 C.3       1 <1>        -0.053057 
      9 C          -0.000000   -0.391379   -0.000110 C.3       1 <1>        -0.053057 
     10 C           1.283062    0.484211    0.000133 C.3       1 <1>        -0.053057 
     11 C           2.565937   -0.391683   -0.000108 C.3       1 <1>        -0.053057 
     12 C           3.849293    0.483573    0.000136 C.3       1 <1>        -0.053057 
     13 C           5.131798   -0.392920   -0.000114 C.3       1 <1>        -0.053057 
     14 C           6.416202    0.480853    0.000125 C.3       1 <1>        -0.053065 
     15 C           7.697129   -0.397874   -0.000102 C.3       1 <1>        -0.053306 
     16 C           8.982935    0.473210    0.000153 C.3       1 <1>        -0.055911 
     17 C          10.259521   -0.407665   -0.000084 C.3       1 <1>        -0.065276 
     18 H         -11.159072    0.228011    0.000074 H         1 <1>         0.022978 
     19 H         -10.283987   -1.048556   -0.895247 H         1 <1>         0.022978 
     20 H         -10.283979   -1.049028    0.894705 H         1 <1>         0.022978 
     21 H          -8.991369    1.119481    0.893786 H         1 <1>         0.026265 
     22 H          -8.991371    1.119962   -0.893179 H         1 <1>         0.026265 
     23 H          -7.696166   -1.043689   -0.893605 H         1 <1>         0.026520 
     24 H          -7.696164   -1.044161    0.893061 H         1 <1>         0.026520 
     25 H          -6.417632    1.126692    0.893672 H         1 <1>         0.026528 
     26 H          -6.417634    1.127151   -0.893039 H         1 <1>         0.026528 
     27 H          -5.131090   -1.038855   -0.893576 H         1 <1>         0.026528 
     28 H          -5.131089   -1.039331    0.893036 H         1 <1>         0.026528 
     29 H          -3.849633    1.129417    0.893583 H         1 <1>         0.026528 
     30 H          -3.849635    1.129883   -0.892962 H         1 <1>         0.026528 
     31 H          -2.565703   -1.037655   -0.893549 H         1 <1>         0.026528 
     32 H          -2.565703   -1.038127    0.893001 H         1 <1>         0.026528 
     33 H          -1.283212    1.130053    0.893590 H         1 <1>         0.026528 
     34 H          -1.283212    1.130518   -0.892965 H         1 <1>         0.026528 
     35 H          -0.000000   -1.037296   -0.893553 H         1 <1>         0.026528 
     36 H           0.000000   -1.037770    0.893009 H         1 <1>         0.026528 
     37 H           1.283212    1.130053    0.893590 H         1 <1>         0.026528 
     38 H           1.283212    1.130518   -0.892965 H         1 <1>         0.026528 
     39 H           2.565703   -1.037655   -0.893549 H         1 <1>         0.026528 
     40 H           2.565703   -1.038127    0.893001 H         1 <1>         0.026528 
     41 H           3.849633    1.129417    0.893583 H         1 <1>         0.026528 
     42 H           3.849635    1.129883   -0.892962 H         1 <1>         0.026528 
     43 H           5.131090   -1.038855   -0.893576 H         1 <1>         0.026528 
     44 H           5.131089   -1.039331    0.893036 H         1 <1>         0.026528 
     45 H           6.417632    1.126692    0.893672 H         1 <1>         0.026528 
     46 H           6.417634    1.127151   -0.893039 H         1 <1>         0.026528 
     47 H           7.696166   -1.043689   -0.893605 H         1 <1>         0.026520 
     48 H           7.696164   -1.044161    0.893061 H         1 <1>         0.026520 
     49 H           8.991369    1.119481    0.893786 H         1 <1>         0.026265 
     50 H           8.991371    1.119962   -0.893179 H         1 <1>         0.026265 
     51 H          11.159072    0.228011    0.000074 H         1 <1>         0.022978 
     52 H          10.283987   -1.048556   -0.895247 H         1 <1>         0.022978 
     53 H          10.283979   -1.049028    0.894705 H         1 <1>         0.022978 
@<TRIPOS>BOND
     1    1    2 1    
     2    1   18 1    
     3    1   19 1    
     4    1   20 1    
     5    2    3 1    
     6    2   21 1    
     7    2   22 1    
     8    3    4 1    
     9    3   23 1    
    10    3   24 1    
    11    4    5 1    
    12    4   25 1    
    13    4   26 1    
    14    5    6 1    
    15    5   27 1    
    16    5   28 1    
    17    6    7 1    
    18    6   29 1    
    19    6   30 1    
    20    7    8 1    
    21    7   31 1    
    22    7   32 1    
    23    8    9 1    
    24    8   33 1    
    25    8   34 1    
    26    9   10 1    
    27    9   35 1    
    28    9   36 1    
    29   10   11 1    
    30   10   37 1    
    31   10   38 1    
    32   11   12 1    
    33   11   39 1    
    34   11   40 1    
    35   12   13 1    
    36   12   41 1    
    37   12   42 1    
    38   13   14 1    
    39   13   43 1    
    40   13   44 1    
    41   14   15 1    
    42   14   45 1    
    43   14   46 1    
    44   15   16 1    
    45   15   47 1    
    46   15   48 1    
    47   16   17 1    
    48   16   49 1    
    49   16   50 1    
    50   17   51 1    
    51   17   52 1    
    52   17   53 1    
@<TRIPOS>SUBSTRUCTURE
     1 ****        1 TEMP              0 ****  ****    0 ROOT 
@<TRIPOS>NORMAL
@<TRIPOS>FF_PBC
FORCE_FIELD_SETUP_FEATURE Force Field Setup information
v1.0  0 0.000000 0.000000 0.000000 0.000000 0.000000 0.000000 NONE 0 0 0 0 1 0 0 0 0 0 0 0 0
