@<TRIPOS>MOLECULE
MOL005370
   39    38     1     1     0
SMALL
GASTEIGER


@<TRIPOS>ATOM
      1 O          -4.348038   -1.344208   -0.000232 O.2       1 <1>        -0.275622 
      2 N          -5.521298    0.570669   -0.000013 N.am      1 <1>        -0.307586 
      3 C           0.750872   -0.641184   -0.000059 C.3       1 <1>        -0.053046 
      4 C           2.106393    0.117628    0.000217 C.3       1 <1>        -0.053057 
      5 C          -0.448355    0.346172    0.000122 C.3       1 <1>        -0.052620 
      6 C           3.308611   -0.866057    0.000015 C.3       1 <1>        -0.053065 
      7 C          -1.806115   -0.409210   -0.000080 C.3       1 <1>        -0.044788 
      8 C           4.662112   -0.103135    0.000393 C.3       1 <1>        -0.053306 
      9 C          -3.007006    0.577863    0.000082 C.3       1 <1>         0.024138 
     10 C           5.870352   -1.080538   -0.000619 C.3       1 <1>        -0.055911 
     11 C          -4.349040   -0.123169   -0.000066 C.2       1 <1>         0.215079 
     12 C           7.236770   -0.329870    0.000102 C.3       1 <1>        -0.065276 
     13 C          -5.513732    2.037809    0.000150 C.3       1 <1>         0.002837 
     14 C          -6.763527   -0.207582   -0.000154 C.3       1 <1>         0.002837 
     15 H           0.693340   -1.284526   -0.893535 H         1 <1>         0.026529 
     16 H           0.693247   -1.284981    0.893082 H         1 <1>         0.026529 
     17 H           2.163162    0.761034    0.893684 H         1 <1>         0.026528 
     18 H           2.163225    0.761493   -0.892918 H         1 <1>         0.026528 
     19 H          -0.388950    0.989339    0.893604 H         1 <1>         0.026540 
     20 H          -0.388898    0.989735   -0.893072 H         1 <1>         0.026540 
     21 H           3.252417   -1.509360   -0.893548 H         1 <1>         0.026528 
     22 H           3.252326   -1.509974    0.893126 H         1 <1>         0.026528 
     23 H          -1.865496   -1.052242   -0.894062 H         1 <1>         0.026980 
     24 H          -1.865550   -1.052605    0.893638 H         1 <1>         0.026980 
     25 H           4.717457    0.539047    0.895113 H         1 <1>         0.026520 
     26 H           4.717087    0.540208   -0.893527 H         1 <1>         0.026520 
     27 H          -2.932688    1.211564    0.896548 H         1 <1>         0.035833 
     28 H          -2.932646    1.211903   -0.896139 H         1 <1>         0.035833 
     29 H           5.800413   -1.728738   -0.890624 H         1 <1>         0.026265 
     30 H           5.800663   -1.730915    0.887822 H         1 <1>         0.026265 
     31 H           7.102513    0.762812   -0.002560 H         1 <1>         0.022978 
     32 H           7.827622   -0.592894    0.892147 H         1 <1>         0.022978 
     33 H           7.830684   -0.596841   -0.888733 H         1 <1>         0.022978 
     34 H          -7.663684    0.424710    0.000010 H         1 <1>         0.042835 
     35 H          -6.802917   -0.848161   -0.894990 H         1 <1>         0.042835 
     36 H          -6.802888   -0.848561    0.894398 H         1 <1>         0.042835 
     37 H          -6.531709    2.454669    0.000196 H         1 <1>         0.042835 
     38 H          -5.008409    2.423803    0.897846 H         1 <1>         0.042835 
     39 H          -5.008416    2.423997   -0.897466 H         1 <1>         0.042835 
@<TRIPOS>BOND
     1   11    1 2    
     2   11    2 1    
     3    2   13 1    
     4    2   14 1    
     5    3    4 1    
     6    5    3 1    
     7    3   15 1    
     8    3   16 1    
     9    4    6 1    
    10    4   17 1    
    11    4   18 1    
    12    7    5 1    
    13    5   19 1    
    14    5   20 1    
    15    6    8 1    
    16    6   21 1    
    17    6   22 1    
    18    9    7 1    
    19    7   23 1    
    20    7   24 1    
    21    8   10 1    
    22    8   25 1    
    23    8   26 1    
    24    9   11 1    
    25    9   27 1    
    26    9   28 1    
    27   10   12 1    
    28   10   29 1    
    29   10   30 1    
    30   12   31 1    
    31   12   32 1    
    32   12   33 1    
    33   13   37 1    
    34   13   38 1    
    35   13   39 1    
    36   14   34 1    
    37   14   35 1    
    38   14   36 1    
@<TRIPOS>SUBSTRUCTURE
     1 ****        3 TEMP              0 ****  ****    0 ROOT 
@<TRIPOS>NORMAL
@<TRIPOS>FF_PBC
FORCE_FIELD_SETUP_FEATURE Force Field Setup information
v1.0  0 0.000000 0.000000 0.000000 0.000000 0.000000 0.000000 NONE 0 0 0 0 1 0 0 0 0 0 0 0 0
