@<TRIPOS>MOLECULE
MOL002182
   40    42     1     1     0
SMALL
GASTEIGER


@<TRIPOS>ATOM
      1 C           0.284891    2.117061    0.198440 C.2       1 <1>        -0.073151 
      2 C          -0.908964    1.253466   -0.182426 C.3       1 <1>        -0.014361 
      3 C          -1.002699   -0.293064    0.121391 C.3       1 <1>        -0.002313 
      4 C           0.099460   -1.152826    0.825348 C.3       1 <1>        -0.026317 
      5 C           0.951690   -0.551521    1.977873 C.3       1 <1>        -0.031638 
      6 C           0.378121    0.817237    2.443348 C.3       1 <1>        -0.045743 
      7 C           0.744088    2.081541    1.635798 C.3       1 <1>        -0.031446 
      8 C          -1.350112    1.368401   -1.671078 C.3       1 <1>        -0.043571 
      9 C          -2.292775    0.166862   -1.879400 C.3       1 <1>        -0.023425 
     10 C          -1.491783   -0.965039   -1.199418 C.3       1 <1>         0.066960 
     11 C           1.624304   -0.987807    0.633300 C.3       1 <1>        -0.028316 
     12 C          -2.376640   -2.230515   -1.012666 C.3       1 <1>        -0.035789 
     13 O          -0.390617   -1.292512   -2.066191 O.3       1 <1>        -0.388544 
     14 C           0.926041    2.936370   -0.651513 C.2       1 <1>        -0.099174 
     15 C           2.438950   -2.307932    0.751755 C.3       1 <1>        -0.059279 
     16 C           2.180710    0.001501   -0.423442 C.3       1 <1>        -0.059279 
     17 H          -1.721736    1.750224    0.378747 H         1 <1>         0.034919 
     18 H          -1.854239   -0.415121    0.813989 H         1 <1>         0.033705 
     19 H          -0.206645   -2.191568    1.030853 H         1 <1>         0.031262 
     20 H           1.027015   -1.281534    2.802135 H         1 <1>         0.030906 
     21 H           0.791441    0.979197    3.454069 H         1 <1>         0.027121 
     22 H          -0.711976    0.745286    2.577527 H         1 <1>         0.027121 
     23 H           0.249606    2.938797    2.122207 H         1 <1>         0.031008 
     24 H           1.829531    2.248607    1.723973 H         1 <1>         0.031008 
     25 H          -1.835626    2.328611   -1.913864 H         1 <1>         0.027196 
     26 H          -0.501682    1.219867   -2.357271 H         1 <1>         0.027196 
     27 H          -2.494478   -0.041625   -2.942756 H         1 <1>         0.029301 
     28 H          -3.248340    0.344171   -1.358762 H         1 <1>         0.029301 
     29 H          -1.809364   -3.048141   -0.545887 H         1 <1>         0.025730 
     30 H          -2.723985   -2.575048   -1.998565 H         1 <1>         0.025730 
     31 H          -3.258226   -2.015122   -0.390188 H         1 <1>         0.025730 
     32 H           0.175339   -1.970209   -1.713611 H         1 <1>         0.210159 
     33 H           1.767322    3.540043   -0.311722 H         1 <1>         0.053449 
     34 H           0.672563    3.072217   -1.699423 H         1 <1>         0.053449 
     35 H           3.476691   -2.060923    1.021806 H         1 <1>         0.023516 
     36 H           2.436817   -2.822433   -0.220989 H         1 <1>         0.023516 
     37 H           2.045258   -3.006882    1.505244 H         1 <1>         0.023516 
     38 H           1.417635    0.325577   -1.135956 H         1 <1>         0.023516 
     39 H           2.672859    0.857377    0.052204 H         1 <1>         0.023516 
     40 H           2.950206   -0.503784   -1.025499 H         1 <1>         0.023516 
@<TRIPOS>BOND
     1    1    2 1    
     2    1    7 1    
     3    1   14 2    
     4    2    3 1    
     5    2    8 1    
     6    2   17 1    
     7    3    4 1    
     8    3   10 1    
     9    3   18 1    
    10    4    5 1    
    11    4   11 1    
    12    4   19 1    
    13    5    6 1    
    14    5   11 1    
    15    5   20 1    
    16    6    7 1    
    17    6   21 1    
    18    6   22 1    
    19    7   23 1    
    20    7   24 1    
    21    8    9 1    
    22    8   25 1    
    23    8   26 1    
    24    9   10 1    
    25    9   27 1    
    26    9   28 1    
    27   10   12 1    
    28   10   13 1    
    29   11   15 1    
    30   11   16 1    
    31   12   29 1    
    32   12   30 1    
    33   12   31 1    
    34   13   32 1    
    35   14   33 1    
    36   14   34 1    
    37   15   35 1    
    38   15   36 1    
    39   15   37 1    
    40   16   38 1    
    41   16   39 1    
    42   16   40 1    
@<TRIPOS>SUBSTRUCTURE
     1 ****        1 TEMP              0 ****  ****    0 ROOT 
@<TRIPOS>NORMAL
@<TRIPOS>FF_PBC
FORCE_FIELD_SETUP_FEATURE Force Field Setup information
v1.0  0 0.000000 0.000000 0.000000 0.000000 0.000000 0.000000 NONE 0 0 0 0 1 0 0 0 0 0 0 0 0
