@<TRIPOS>MOLECULE
MOL002028
   26    26     1     1     0
SMALL
GASTEIGER


@<TRIPOS>ATOM
      1 C          -0.223918    2.566982    0.898803 C.3       1 <1>        -0.062133 
      2 C          -0.636504    1.074988    0.733947 C.3       1 <1>        -0.040434 
      3 C          -0.395721    0.594640   -0.734065 C.3       1 <1>        -0.019977 
      4 C           1.077292    0.673735   -1.061716 C.2       1 <1>        -0.080421 
      5 C           1.894836   -0.371870   -0.886502 C.2       1 <1>        -0.062780 
      6 C          -0.863191   -0.856325   -1.045372 C.3       1 <1>        -0.042544 
      7 C          -0.072558   -1.900215   -0.216708 C.3       1 <1>        -0.027701 
      8 C           1.412298   -1.672685   -0.375213 C.2       1 <1>        -0.054705 
      9 C           2.277376   -2.645785   -0.059653 C.2       1 <1>        -0.095505 
     10 C          -2.117802    0.904210    1.177096 C.3       1 <1>        -0.062133 
     11 H           0.843627    2.714090    0.677218 H         1 <1>         0.023251 
     12 H          -0.814377    3.205116    0.223582 H         1 <1>         0.023251 
     13 H          -0.394797    2.905336    1.932719 H         1 <1>         0.023251 
     14 H          -0.001815    0.487456    1.418962 H         1 <1>         0.030110 
     15 H          -0.947188    1.263337   -1.417089 H         1 <1>         0.034561 
     16 H           1.485491    1.610719   -1.445074 H         1 <1>         0.057498 
     17 H           2.952166   -0.254319   -1.129138 H         1 <1>         0.061710 
     18 H          -1.946503   -0.978438   -0.892275 H         1 <1>         0.027409 
     19 H          -0.667913   -1.055266   -2.113451 H         1 <1>         0.027409 
     20 H          -0.335068   -1.833234    0.849694 H         1 <1>         0.031317 
     21 H          -0.343126   -2.909496   -0.568898 H         1 <1>         0.031317 
     22 H           3.353227   -2.509841   -0.166907 H         1 <1>         0.053749 
     23 H           1.929050   -3.606975    0.317753 H         1 <1>         0.053749 
     24 H          -2.394213   -0.157195    1.256641 H         1 <1>         0.023251 
     25 H          -2.280434    1.354820    2.168478 H         1 <1>         0.023251 
     26 H          -2.790138    1.395713    0.457267 H         1 <1>         0.023251 
@<TRIPOS>BOND
     1    1    2 1    
     2    1   11 1    
     3    1   12 1    
     4    1   13 1    
     5    2    3 1    
     6    2   10 1    
     7    2   14 1    
     8    3    4 1    
     9    3    6 1    
    10    3   15 1    
    11    4    5 2    
    12    4   16 1    
    13    5    8 1    
    14    5   17 1    
    15    6    7 1    
    16    6   18 1    
    17    6   19 1    
    18    7    8 1    
    19    7   20 1    
    20    7   21 1    
    21    8    9 2    
    22    9   22 1    
    23    9   23 1    
    24   10   24 1    
    25   10   25 1    
    26   10   26 1    
@<TRIPOS>SUBSTRUCTURE
     1 ****        1 TEMP              0 ****  ****    0 ROOT 
@<TRIPOS>NORMAL
@<TRIPOS>FF_PBC
FORCE_FIELD_SETUP_FEATURE Force Field Setup information
v1.0  0 0.000000 0.000000 0.000000 0.000000 0.000000 0.000000 NONE 0 0 0 0 1 0 0 0 0 0 0 0 0
