@<TRIPOS>MOLECULE
MOL002138
   25    25     1     1     0
SMALL
GASTEIGER


@<TRIPOS>ATOM
      1 C           1.279573    1.424711   -0.327295 C.3       1 <1>         0.085351 
      2 C           0.350039    0.230158   -0.026333 C.ar      1 <1>        -0.016638 
      3 C           0.840952    2.658126    0.508780 C.3       1 <1>        -0.032144 
      4 C           1.260837    1.733247   -1.849387 C.3       1 <1>        -0.032144 
      5 O           2.623972    1.072258    0.050848 O.3       1 <1>        -0.384506 
      6 C           0.889074   -1.027490    0.553620 C.ar      1 <1>        -0.055624 
      7 C          -1.049619    0.301012   -0.296816 C.ar      1 <1>        -0.055624 
      8 C           0.040907   -2.119529    0.828077 C.ar      1 <1>        -0.058491 
      9 C          -1.936213   -0.850132   -0.005549 C.ar      1 <1>        -0.058491 
     10 C          -1.411746   -2.035491    0.542605 C.ar      1 <1>        -0.050427 
     11 C          -2.341451   -3.217065    0.835686 C.3       1 <1>        -0.039709 
     12 H           0.861685    2.398687    1.578312 H         1 <1>         0.026047 
     13 H          -0.174497    2.987222    0.245732 H         1 <1>         0.026047 
     14 H           1.527368    3.501753    0.340305 H         1 <1>         0.026047 
     15 H           0.258472    2.028978   -2.190815 H         1 <1>         0.026047 
     16 H           1.957758    2.551611   -2.085646 H         1 <1>         0.026047 
     17 H           1.572807    0.836458   -2.406272 H         1 <1>         0.026047 
     18 H           3.260721    1.761537   -0.105829 H         1 <1>         0.210592 
     19 H           1.946850   -1.120818    0.773868 H         1 <1>         0.062127 
     20 H          -1.489499    1.196276   -0.719824 H         1 <1>         0.062127 
     21 H           0.457595   -3.027192    1.252064 H         1 <1>         0.062029 
     22 H          -2.997667   -0.774800   -0.217881 H         1 <1>         0.062029 
     23 H          -1.772214   -4.115735    1.116220 H         1 <1>         0.027753 
     24 H          -3.014412   -2.948254    1.663568 H         1 <1>         0.027753 
     25 H          -2.941393   -3.445532   -0.058139 H         1 <1>         0.027753 
@<TRIPOS>BOND
     1    1    2 1    
     2    1    3 1    
     3    1    4 1    
     4    1    5 1    
     5    2    6 1    
     6    2    7 2    
     7    3   12 1    
     8    3   13 1    
     9    3   14 1    
    10    4   15 1    
    11    4   16 1    
    12    4   17 1    
    13    5   18 1    
    14    6    8 2    
    15    6   19 1    
    16    7    9 1    
    17    7   20 1    
    18    8   10 1    
    19    8   21 1    
    20    9   10 2    
    21    9   22 1    
    22   10   11 1    
    23   11   23 1    
    24   11   24 1    
    25   11   25 1    
@<TRIPOS>SUBSTRUCTURE
     1 ****        1 TEMP              0 ****  ****    0 ROOT 
@<TRIPOS>NORMAL
@<TRIPOS>FF_PBC
FORCE_FIELD_SETUP_FEATURE Force Field Setup information
v1.0  0 0.000000 0.000000 0.000000 0.000000 0.000000 0.000000 NONE 0 0 0 0 1 0 0 0 0 0 0 0 0
