@<TRIPOS>MOLECULE
MOL001551
   82    86     1     1     0
SMALL
GASTEIGER


@<TRIPOS>ATOM
      1 O          -6.103823   -2.226581    0.474437 O.3       1 <1>        -0.391248 
      2 O           4.267141    0.441876    3.992968 O.3       1 <1>        -0.394451 
      3 C          -0.026567   -0.818758    0.298201 C.3       1 <1>        -0.023070 
      4 C           1.320277    0.053241    0.130415 C.3       1 <1>        -0.023268 
      5 C          -1.293489    0.113966    0.502123 C.3       1 <1>        -0.029439 
      6 C           1.476365    1.006663    1.384499 C.3       1 <1>        -0.031169 
      7 C          -2.753077   -0.536601    0.433869 C.3       1 <1>        -0.025247 
      8 C           2.849014    1.748256    1.447066 C.3       1 <1>        -0.023462 
      9 C           4.030354    0.738508    1.491572 C.3       1 <1>        -0.002448 
     10 C          -2.843582   -1.447255   -0.849248 C.3       1 <1>        -0.027845 
     11 C           2.617570   -0.840951    0.036051 C.3       1 <1>        -0.046271 
     12 C          -0.293189   -1.673756   -0.985071 C.3       1 <1>        -0.046560 
     13 C          -1.049515    1.120358    1.676655 C.3       1 <1>        -0.048916 
     14 C           0.254376    1.949986    1.503165 C.3       1 <1>        -0.049125 
     15 C           3.972629   -0.077940    0.165942 C.3       1 <1>        -0.044485 
     16 C          -1.647450   -2.431708   -0.983778 C.3       1 <1>        -0.048618 
     17 C           3.180006    2.760791    2.582892 C.3       1 <1>        -0.016722 
     18 C          -4.233664   -2.092923   -1.250532 C.3       1 <1>        -0.005589 
     19 C          -3.836712    0.574455    0.166565 C.3       1 <1>        -0.044730 
     20 C           5.225969    1.721668    1.586807 C.3       1 <1>        -0.044457 
     21 C           0.094610   -1.866350    1.468666 C.3       1 <1>        -0.058784 
     22 C           1.320650    0.890810   -1.217536 C.3       1 <1>        -0.058792 
     23 C           4.743000    2.817503    2.581342 C.3       1 <1>        -0.045666 
     24 C          -3.138333   -1.265201    1.765076 C.3       1 <1>        -0.059019 
     25 C          -5.462068   -1.424195   -0.537972 C.3       1 <1>         0.060637 
     26 C          -5.290646    0.066064   -0.114914 C.3       1 <1>        -0.025831 
     27 C           4.108787   -0.228659    2.730963 C.3       1 <1>         0.050108 
     28 C           2.648065    4.185692    2.469915 C.2       1 <1>        -0.076321 
     29 C          -4.428994   -1.926118   -2.801171 C.3       1 <1>        -0.057190 
     30 C          -4.307138   -3.634369   -0.983397 C.3       1 <1>        -0.057190 
     31 C           1.956425    4.750558    3.694059 C.3       1 <1>        -0.043768 
     32 C           2.809011    4.933216    1.370021 C.2       1 <1>        -0.099438 
     33 H          -1.307502    0.763492   -0.374963 H         1 <1>         0.031155 
     34 H           1.471744    0.441574    2.318746 H         1 <1>         0.030923 
     35 H           2.935135    2.349354    0.541503 H         1 <1>         0.031540 
     36 H          -2.639881   -0.733382   -1.661579 H         1 <1>         0.031210 
     37 H           2.645031   -1.386431   -0.920285 H         1 <1>         0.027096 
     38 H           2.652440   -1.604117    0.815118 H         1 <1>         0.027096 
     39 H           0.512272   -2.409342   -1.134258 H         1 <1>         0.027087 
     40 H          -0.330175   -1.043819   -1.883139 H         1 <1>         0.027087 
     41 H          -1.869753    1.848123    1.764714 H         1 <1>         0.026837 
     42 H          -0.971620    0.601059    2.642324 H         1 <1>         0.026837 
     43 H           0.367854    2.581544    2.395562 H         1 <1>         0.026829 
     44 H           0.187838    2.627350    0.640143 H         1 <1>         0.026829 
     45 H           4.813232   -0.790690    0.148622 H         1 <1>         0.027158 
     46 H           4.116715    0.579642   -0.703718 H         1 <1>         0.027158 
     47 H          -1.695445   -2.942167   -1.959080 H         1 <1>         0.026846 
     48 H          -1.680711   -3.219189   -0.220682 H         1 <1>         0.026846 
     49 H           2.815230    2.308475    3.517286 H         1 <1>         0.034837 
     50 H          -3.902619    1.283930    1.005002 H         1 <1>         0.027149 
     51 H          -3.530964    1.179349   -0.705214 H         1 <1>         0.027149 
     52 H           6.165289    1.240627    1.903247 H         1 <1>         0.027158 
     53 H           5.399733    2.178381    0.599353 H         1 <1>         0.027158 
     54 H          -0.831121   -2.401115    1.665586 H         1 <1>         0.023533 
     55 H           0.387236   -1.452595    2.438427 H         1 <1>         0.023533 
     56 H           0.795764   -2.675753    1.229224 H         1 <1>         0.023533 
     57 H           2.153741    1.587328   -1.320998 H         1 <1>         0.023533 
     58 H           1.431876    0.248188   -2.100679 H         1 <1>         0.023533 
     59 H           0.436794    1.509942   -1.396351 H         1 <1>         0.023533 
     60 H           5.137683    2.649062    3.597311 H         1 <1>         0.027124 
     61 H           5.140135    3.794015    2.256219 H         1 <1>         0.027124 
     62 H          -3.197284   -2.348662    1.622269 H         1 <1>         0.023525 
     63 H          -2.438726   -1.085953    2.587072 H         1 <1>         0.023525 
     64 H          -4.102058   -0.921111    2.162403 H         1 <1>         0.023525 
     65 H          -6.311903   -1.453952   -1.241016 H         1 <1>         0.059852 
     66 H          -5.914534    0.213347    0.782883 H         1 <1>         0.029037 
     67 H          -5.733739    0.715646   -0.892811 H         1 <1>         0.029037 
     68 H           4.990951   -0.876573    2.591748 H         1 <1>         0.056259 
     69 H           3.238746   -0.889750    2.835234 H         1 <1>         0.056259 
     70 H          -3.569172   -2.324006   -3.361500 H         1 <1>         0.023587 
     71 H          -4.544008   -0.863173   -3.066297 H         1 <1>         0.023587 
     72 H          -5.324980   -2.452528   -3.164252 H         1 <1>         0.023587 
     73 H          -5.318106   -4.006196   -1.212503 H         1 <1>         0.023587 
     74 H          -4.091112   -3.879435    0.065295 H         1 <1>         0.023587 
     75 H          -3.616022   -4.211742   -1.614386 H         1 <1>         0.023587 
     76 H          -5.605698   -2.380465    1.264990 H         1 <1>         0.209800 
     77 H           4.352095   -0.144177    4.740584 H         1 <1>         0.209419 
     78 H           1.174599    4.075640    4.066290 H         1 <1>         0.027436 
     79 H           1.490649    5.727201    3.496570 H         1 <1>         0.027436 
     80 H           2.706509    4.885406    4.486983 H         1 <1>         0.027436 
     81 H           3.335169    4.584230    0.482404 H         1 <1>         0.053440 
     82 H           2.425978    5.952313    1.312722 H         1 <1>         0.053440 
@<TRIPOS>BOND
     1   25    1 1    
     2    1   76 1    
     3   27    2 1    
     4    2   77 1    
     5    3    4 1    
     6    5    3 1    
     7   12    3 1    
     8    3   21 1    
     9    4    6 1    
    10    4   11 1    
    11    4   22 1    
    12    7    5 1    
    13    5   13 1    
    14    5   33 1    
    15    6    8 1    
    16   14    6 1    
    17    6   34 1    
    18   10    7 1    
    19    7   19 1    
    20    7   24 1    
    21    8    9 1    
    22    8   17 1    
    23    8   35 1    
    24   15    9 1    
    25    9   20 1    
    26    9   27 1    
    27   10   16 1    
    28   18   10 1    
    29   10   36 1    
    30   11   15 1    
    31   11   37 1    
    32   11   38 1    
    33   16   12 1    
    34   12   39 1    
    35   12   40 1    
    36   13   14 1    
    37   13   41 1    
    38   13   42 1    
    39   14   43 1    
    40   14   44 1    
    41   15   45 1    
    42   15   46 1    
    43   16   47 1    
    44   16   48 1    
    45   17   23 1    
    46   17   28 1    
    47   17   49 1    
    48   18   25 1    
    49   18   29 1    
    50   18   30 1    
    51   19   26 1    
    52   19   50 1    
    53   19   51 1    
    54   20   23 1    
    55   20   52 1    
    56   20   53 1    
    57   21   54 1    
    58   21   55 1    
    59   21   56 1    
    60   22   57 1    
    61   22   58 1    
    62   22   59 1    
    63   23   60 1    
    64   23   61 1    
    65   24   62 1    
    66   24   63 1    
    67   24   64 1    
    68   25   26 1    
    69   25   65 1    
    70   26   66 1    
    71   26   67 1    
    72   27   68 1    
    73   27   69 1    
    74   28   31 1    
    75   28   32 2    
    76   29   70 1    
    77   29   71 1    
    78   29   72 1    
    79   30   73 1    
    80   30   74 1    
    81   30   75 1    
    82   31   78 1    
    83   31   79 1    
    84   31   80 1    
    85   32   81 1    
    86   32   82 1    
@<TRIPOS>SUBSTRUCTURE
     1 ****        3 TEMP              0 ****  ****    0 ROOT 
@<TRIPOS>NORMAL
@<TRIPOS>FF_PBC
FORCE_FIELD_SETUP_FEATURE Force Field Setup information
v1.0  0 0.000000 0.000000 0.000000 0.000000 0.000000 0.000000 NONE 0 0 0 0 1 0 0 0 0 0 0 0 0
