@<TRIPOS>MOLECULE
MOL002192
   46    47     1     1     0
SMALL
GASTEIGER


@<TRIPOS>ATOM
      1 C           5.866307   -2.566194    0.913689 C.ar      1 <1>        -0.028841 
      2 C           6.308805   -3.932812    1.268083 C.ar      1 <1>         0.102471 
      3 C           5.349557   -4.952825    1.483187 C.ar      1 <1>         0.105959 
      4 C           3.904337   -4.632614    1.345784 C.ar      1 <1>        -0.022000 
      5 C           3.469654   -3.314079    1.000250 C.ar      1 <1>        -0.022251 
      6 C           4.498864   -2.263231    0.785557 C.ar      1 <1>        -0.051998 
      7 O           7.674570   -4.201127    1.387168 O.3       1 <1>        -0.357268 
      8 O           5.804106   -6.237113    1.819856 O.3       1 <1>        -0.345331 
      9 C           4.891531   -7.319325    2.065242 C.3       1 <1>         0.043136 
     10 C           1.978515   -3.061046    0.870608 C.2       1 <1>        -0.048856 
     11 C           1.408180   -1.905530    0.497408 C.2       1 <1>         0.010502 
     12 C          -0.051718   -1.717677    0.377607 C.2       1 <1>         0.286887 
     13 O          -0.530507   -0.525134   -0.012712 O.3       1 <1>        -0.307743 
     14 O          -0.799392   -2.650213    0.630589 O.2       1 <1>        -0.259868 
     15 C          -1.966502   -0.475544   -0.146462 C.3       1 <1>         0.075870 
     16 C          -2.338794    0.899559   -0.642608 C.2       1 <1>        -0.057528 
     17 C          -3.384173    1.592359   -0.168213 C.2       1 <1>        -0.056278 
     18 C          -3.766635    2.976040   -0.653191 C.ar      1 <1>        -0.022662 
     19 C          -5.189663    3.386467   -0.567192 C.ar      1 <1>        -0.022252 
     20 C          -5.606780    4.652135   -1.006131 C.ar      1 <1>         0.102997 
     21 C          -4.624401    5.614225   -1.566325 C.ar      1 <1>         0.105438 
     22 C          -3.249009    5.234098   -1.648310 C.ar      1 <1>        -0.028600 
     23 C          -2.819091    3.894966   -1.178991 C.ar      1 <1>        -0.052001 
     24 O          -6.955824    4.998343   -0.911698 O.3       1 <1>        -0.357256 
     25 O          -5.086786    6.867274   -1.996357 O.3       1 <1>        -0.345349 
     26 C          -4.195842    7.866528   -2.517629 C.3       1 <1>         0.043135 
     27 H           6.613456   -1.796074    0.753974 H         1 <1>         0.064421 
     28 H           3.160261   -5.402131    1.505650 H         1 <1>         0.065001 
     29 H           4.224313   -1.248571    0.528642 H         1 <1>         0.062425 
     30 H           7.833025   -5.112104    1.616330 H         1 <1>         0.217422 
     31 H           5.485629   -8.211491    2.312865 H         1 <1>         0.052871 
     32 H           4.233320   -7.094552    2.918589 H         1 <1>         0.052871 
     33 H           4.291642   -7.541690    1.169350 H         1 <1>         0.052871 
     34 H           1.314271   -3.894972    1.098063 H         1 <1>         0.062526 
     35 H           1.985562   -1.019376    0.250128 H         1 <1>         0.067735 
     36 H          -2.307060   -1.205697   -0.899418 H         1 <1>         0.061028 
     37 H          -2.454219   -0.698695    0.817292 H         1 <1>         0.061028 
     38 H          -1.709114    1.302107   -1.434492 H         1 <1>         0.059502 
     39 H          -4.016695    1.150978    0.601783 H         1 <1>         0.062105 
     40 H          -5.927172    2.702559   -0.162287 H         1 <1>         0.064993 
     41 H          -2.498225    5.903534   -2.048822 H         1 <1>         0.064429 
     42 H          -1.768532    3.636920   -1.239959 H         1 <1>         0.062425 
     43 H          -7.108375    5.876363   -1.247546 H         1 <1>         0.217422 
     44 H          -4.796801    8.752216   -2.771550 H         1 <1>         0.052871 
     45 H          -3.448011    8.159521   -1.764793 H         1 <1>         0.052871 
     46 H          -3.696681    7.513726   -3.433105 H         1 <1>         0.052871 
@<TRIPOS>BOND
     1    1    2 1    
     2    1    6 2    
     3    1   27 1    
     4    2    3 2    
     5    2    7 1    
     6    3    4 1    
     7    3    8 1    
     8    4    5 2    
     9    4   28 1    
    10    5    6 1    
    11    5   10 1    
    12    6   29 1    
    13    7   30 1    
    14    8    9 1    
    15    9   31 1    
    16    9   32 1    
    17    9   33 1    
    18   10   11 2    
    19   10   34 1    
    20   11   12 1    
    21   11   35 1    
    22   12   13 1    
    23   12   14 2    
    24   13   15 1    
    25   15   16 1    
    26   15   36 1    
    27   15   37 1    
    28   16   17 2    
    29   16   38 1    
    30   17   18 1    
    31   17   39 1    
    32   18   19 1    
    33   18   23 2    
    34   19   20 2    
    35   19   40 1    
    36   20   21 1    
    37   20   24 1    
    38   21   22 2    
    39   21   25 1    
    40   22   23 1    
    41   22   41 1    
    42   23   42 1    
    43   24   43 1    
    44   25   26 1    
    45   26   44 1    
    46   26   45 1    
    47   26   46 1    
@<TRIPOS>SUBSTRUCTURE
     1 ****        1 TEMP              0 ****  ****    0 ROOT 
@<TRIPOS>NORMAL
@<TRIPOS>FF_PBC
FORCE_FIELD_SETUP_FEATURE Force Field Setup information
v1.0  0 0.000000 0.000000 0.000000 0.000000 0.000000 0.000000 NONE 0 0 0 0 1 0 0 0 0 0 0 0 0
