@<TRIPOS>MOLECULE
MOL004875
   47    49     1     1     0
SMALL
GASTEIGER


@<TRIPOS>ATOM
      1 C          -2.544195   -0.215934    0.447308 C.2       1 <1>         0.058417 
      2 C          -1.892657    0.850387   -0.036262 C.2       1 <1>         0.057505 
      3 C          -2.636404    1.962642   -0.646278 C.2       1 <1>         0.198256 
      4 C          -4.135832    1.959958   -0.493818 C.ar      1 <1>         0.052907 
      5 C          -4.713028    0.720275    0.056254 C.ar      1 <1>         0.095569 
      6 O          -3.882566   -0.335977    0.428968 O.3       1 <1>        -0.315351 
      7 C          -6.095784    0.609469    0.218945 C.ar      1 <1>        -0.000723 
      8 C          -6.982946    1.745786   -0.149286 C.ar      1 <1>         0.075081 
      9 C          -6.423094    2.924816   -0.652919 C.ar      1 <1>        -0.031105 
     10 C          -4.956786    3.042526   -0.838777 C.ar      1 <1>        -0.045981 
     11 O          -2.069312    2.855817   -1.249488 O.2       1 <1>        -0.286476 
     12 O          -8.366511    1.661025    0.007904 O.3       1 <1>        -0.359749 
     13 C          -0.378518    0.927232    0.068654 C.ar      1 <1>         0.047782 
     14 C           0.476769   -0.239028   -0.280662 C.ar      1 <1>         0.092040 
     15 C           1.888901   -0.170432   -0.134467 C.ar      1 <1>         0.016722 
     16 C           2.506945    1.094467    0.349968 C.ar      1 <1>         0.080965 
     17 C           1.693481    2.195704    0.650065 C.ar      1 <1>        -0.001126 
     18 C           0.224001    2.108505    0.528439 C.ar      1 <1>         0.085373 
     19 C           2.749520   -1.403269   -0.465478 C.3       1 <1>        -0.004333 
     20 C           4.240947   -1.265519   -0.678849 C.2       1 <1>        -0.080815 
     21 C           5.149512   -2.176402   -0.282421 C.2       1 <1>        -0.079306 
     22 C           6.635360   -1.941012   -0.470329 C.3       1 <1>        -0.044040 
     23 C           4.780370   -3.497678    0.369193 C.3       1 <1>        -0.044040 
     24 O          -0.149943   -1.396161   -0.764790 O.3       1 <1>        -0.346856 
     25 C          -0.093474   -2.628014   -0.015714 C.3       1 <1>         0.043065 
     26 O          -0.533603    3.215363    0.906715 O.3       1 <1>        -0.359057 
     27 O           3.890402    1.182296    0.512853 O.3       1 <1>        -0.359385 
     28 H          -2.016684   -1.045295    0.905721 H         1 <1>         0.089751 
     29 H          -6.503915   -0.309922    0.626768 H         1 <1>         0.066945 
     30 H          -7.070772    3.754148   -0.910305 H         1 <1>         0.064341 
     31 H          -4.526394    3.953329   -1.240235 H         1 <1>         0.062621 
     32 H          -8.657715    0.829120    0.361228 H         1 <1>         0.217315 
     33 H           2.121013    3.130720    0.993813 H         1 <1>         0.066931 
     34 H           2.361171   -1.892317   -1.371954 H         1 <1>         0.035721 
     35 H           2.587946   -2.039936    0.412964 H         1 <1>         0.035721 
     36 H           4.584841   -0.371047   -1.197799 H         1 <1>         0.057473 
     37 H           7.087145   -2.778665   -1.027049 H         1 <1>         0.027427 
     38 H           6.860679   -1.008742   -1.013519 H         1 <1>         0.027427 
     39 H           7.108160   -1.884437    0.522372 H         1 <1>         0.027427 
     40 H           5.560728   -4.257810    0.202411 H         1 <1>         0.027427 
     41 H           4.670172   -3.359530    1.455166 H         1 <1>         0.027427 
     42 H           3.847379   -3.910768   -0.045712 H         1 <1>         0.027427 
     43 H          -1.014166   -3.182640   -0.237231 H         1 <1>         0.052870 
     44 H           0.740925   -3.272186   -0.318582 H         1 <1>         0.052870 
     45 H          -0.046342   -2.455422    1.069745 H         1 <1>         0.052870 
     46 H          -1.272623    2.986288    1.460295 H         1 <1>         0.217341 
     47 H           4.223736    2.071191    0.552871 H         1 <1>         0.217328 
@<TRIPOS>BOND
     1    1    2 2    
     2    1    6 1    
     3    1   28 1    
     4    2    3 1    
     5    2   13 1    
     6    3    4 1    
     7    3   11 2    
     8    4    5 1    
     9    4   10 2    
    10    5    6 1    
    11    5    7 2    
    12    7    8 1    
    13    7   29 1    
    14    8    9 2    
    15    8   12 1    
    16    9   10 1    
    17    9   30 1    
    18   10   31 1    
    19   12   32 1    
    20   13   14 1    
    21   13   18 2    
    22   14   15 2    
    23   14   24 1    
    24   15   16 1    
    25   15   19 1    
    26   16   17 2    
    27   16   27 1    
    28   17   18 1    
    29   17   33 1    
    30   18   26 1    
    31   19   20 1    
    32   19   34 1    
    33   19   35 1    
    34   20   21 2    
    35   20   36 1    
    36   21   22 1    
    37   21   23 1    
    38   22   37 1    
    39   22   38 1    
    40   22   39 1    
    41   23   40 1    
    42   23   41 1    
    43   23   42 1    
    44   24   25 1    
    45   25   43 1    
    46   25   44 1    
    47   25   45 1    
    48   26   46 1    
    49   27   47 1    
@<TRIPOS>SUBSTRUCTURE
     1 ****        1 TEMP              0 ****  ****    0 ROOT 
@<TRIPOS>NORMAL
@<TRIPOS>FF_PBC
FORCE_FIELD_SETUP_FEATURE Force Field Setup information
v1.0  0 0.000000 0.000000 0.000000 0.000000 0.000000 0.000000 NONE 0 0 0 0 1 0 0 0 0 0 0 0 0
