@<TRIPOS>MOLECULE
MOL004871
   23    22     1     1     0
SMALL
GASTEIGER


@<TRIPOS>ATOM
      1 C          -0.324444   -0.706789    0.120325 C.3       1 <1>        -0.041792 
      2 C           1.169144   -0.238766    0.003195 C.3       1 <1>        -0.044143 
      3 C          -1.397693    0.428782    0.023213 C.3       1 <1>        -0.053079 
      4 C          -0.543771   -1.549155    1.412476 C.3       1 <1>        -0.062189 
      5 C           1.699742    0.565123    1.227669 C.3       1 <1>        -0.062423 
      6 C           1.447359    0.558341   -1.300981 C.3       1 <1>        -0.062423 
      7 C          -1.978152    0.625812   -1.406232 C.3       1 <1>        -0.065026 
      8 H          -0.502998   -1.406365   -0.715570 H         1 <1>         0.030053 
      9 H           1.787765   -1.153209   -0.056735 H         1 <1>         0.029805 
     10 H          -0.993899    1.382772    0.389389 H         1 <1>         0.026529 
     11 H          -2.263087    0.183573    0.660843 H         1 <1>         0.026529 
     12 H          -1.516149   -2.066502    1.373511 H         1 <1>         0.023250 
     13 H           0.239761   -2.315809    1.521149 H         1 <1>         0.023250 
     14 H          -0.540591   -0.906721    2.306060 H         1 <1>         0.023250 
     15 H           2.752759    0.844394    1.064501 H         1 <1>         0.023242 
     16 H           1.663763   -0.033083    2.149407 H         1 <1>         0.023242 
     17 H           1.128981    1.490443    1.386203 H         1 <1>         0.023242 
     18 H           2.528792    0.729259   -1.424759 H         1 <1>         0.023242 
     19 H           1.092578   -0.000887   -2.180997 H         1 <1>         0.023242 
     20 H           0.954226    1.541365   -1.269054 H         1 <1>         0.023242 
     21 H          -2.727813    1.433125   -1.398879 H         1 <1>         0.022986 
     22 H          -2.473011   -0.297213   -1.748257 H         1 <1>         0.022986 
     23 H          -1.203263    0.891707   -2.137077 H         1 <1>         0.022986 
@<TRIPOS>BOND
     1    1    2 1    
     2    1    3 1    
     3    1    4 1    
     4    1    8 1    
     5    2    5 1    
     6    2    6 1    
     7    2    9 1    
     8    3    7 1    
     9    3   10 1    
    10    3   11 1    
    11    4   12 1    
    12    4   13 1    
    13    4   14 1    
    14    5   15 1    
    15    5   16 1    
    16    5   17 1    
    17    6   18 1    
    18    6   19 1    
    19    6   20 1    
    20    7   21 1    
    21    7   22 1    
    22    7   23 1    
@<TRIPOS>SUBSTRUCTURE
     1 ****        1 TEMP              0 ****  ****    0 ROOT 
@<TRIPOS>NORMAL
@<TRIPOS>FF_PBC
FORCE_FIELD_SETUP_FEATURE Force Field Setup information
v1.0  0 0.000000 0.000000 0.000000 0.000000 0.000000 0.000000 NONE 0 0 0 0 1 0 0 0 0 0 0 0 0
