@<TRIPOS>MOLECULE
MOL009734
   77    76     1     1     0
SMALL
GASTEIGER


@<TRIPOS>ATOM
      1 C          14.015343    0.454440   -0.000022 C.2       1 <1>         0.261905 
      2 C          12.771936   -0.396343   -0.000131 C.3       1 <1>         0.033189 
      3 C          11.471214    0.451668    0.000040 C.3       1 <1>        -0.044055 
      4 C          10.204851   -0.447921   -0.000100 C.3       1 <1>        -0.052596 
      5 C           8.908498    0.407554    0.000103 C.3       1 <1>        -0.053045 
      6 C           7.636311   -0.483994   -0.000052 C.3       1 <1>        -0.053057 
      7 C           6.346038    0.381024    0.000148 C.3       1 <1>        -0.053057 
      8 C           5.066699   -0.499997   -0.000068 C.3       1 <1>        -0.053057 
      9 C           3.782762    0.374498    0.000136 C.3       1 <1>        -0.053057 
     10 C           2.498404   -0.499072   -0.000099 C.3       1 <1>        -0.053057 
     11 C           1.218686    0.381603    0.000123 C.3       1 <1>        -0.053057 
     12 C          -0.068810   -0.487259   -0.000109 C.3       1 <1>        -0.053057 
     13 C          -1.346696    0.396176    0.000120 C.3       1 <1>        -0.053057 
     14 C          -2.634477   -0.472244   -0.000109 C.3       1 <1>        -0.053057 
     15 C          -3.914236    0.408382    0.000120 C.3       1 <1>        -0.053057 
     16 C          -5.198797   -0.465081   -0.000110 C.3       1 <1>        -0.053057 
     17 C          -6.482077    0.410100    0.000124 C.3       1 <1>        -0.053057 
     18 C          -7.763554   -0.468148   -0.000098 C.3       1 <1>        -0.053057 
     19 C          -9.049120    0.403679    0.000144 C.3       1 <1>        -0.053057 
     20 C         -10.329543   -0.476004   -0.000080 C.3       1 <1>        -0.053057 
     21 C         -11.615058    0.396088    0.000141 C.3       1 <1>        -0.053065 
     22 C         -12.896498   -0.481915   -0.000097 C.3       1 <1>        -0.053306 
     23 C         -14.180154    0.392413    0.000117 C.3       1 <1>        -0.055911 
     24 C         -15.459922   -0.483767   -0.000096 C.3       1 <1>        -0.065276 
     25 O          13.964392    1.674970    0.000133 O.2       1 <1>        -0.264985 
     26 O          15.166016   -0.235141   -0.000124 O.3       1 <1>        -0.318522 
     27 C          16.342980    0.596889   -0.000048 C.3       1 <1>         0.045865 
     28 H          12.797738   -1.039015   -0.893948 H         1 <1>         0.036606 
     29 H          12.797786   -1.039303    0.893502 H         1 <1>         0.036606 
     30 H          11.462456    1.097366    0.893931 H         1 <1>         0.027004 
     31 H          11.462424    1.097665   -0.893589 H         1 <1>         0.027004 
     32 H          10.215500   -1.093558   -0.893702 H         1 <1>         0.026540 
     33 H          10.215527   -1.093872    0.893277 H         1 <1>         0.026540 
     34 H           8.899660    1.053581    0.893454 H         1 <1>         0.026529 
     35 H           8.899636    1.053902   -0.893059 H         1 <1>         0.026529 
     36 H           7.642855   -1.129791   -0.893563 H         1 <1>         0.026528 
     37 H           7.642887   -1.130108    0.893155 H         1 <1>         0.026528 
     38 H           6.341963    1.026951    0.893539 H         1 <1>         0.026528 
     39 H           6.341954    1.027332   -0.893008 H         1 <1>         0.026528 
     40 H           5.068319   -1.145712   -0.893633 H         1 <1>         0.026528 
     41 H           5.068328   -1.146098    0.893212 H         1 <1>         0.026528 
     42 H           3.782724    1.020451    0.893584 H         1 <1>         0.026528 
     43 H           3.782734    1.020858   -0.892976 H         1 <1>         0.026528 
     44 H           2.496790   -1.144794   -0.893608 H         1 <1>         0.026528 
     45 H           2.496780   -1.145225    0.893135 H         1 <1>         0.026528 
     46 H           1.221379    1.027494    0.893625 H         1 <1>         0.026528 
     47 H           1.221390    1.027911   -0.893039 H         1 <1>         0.026528 
     48 H          -0.072064   -1.133094   -0.893588 H         1 <1>         0.026528 
     49 H          -0.072070   -1.133529    0.893078 H         1 <1>         0.026528 
     50 H          -1.343132    1.042003    0.893635 H         1 <1>         0.026528 
     51 H          -1.343130    1.042424   -0.893059 H         1 <1>         0.026528 
     52 H          -2.637312   -1.118055   -0.893595 H         1 <1>         0.026528 
     53 H          -2.637311   -1.118490    0.893088 H         1 <1>         0.026528 
     54 H          -3.912613    1.054228    0.893627 H         1 <1>         0.026528 
     55 H          -3.912614    1.054648   -0.893038 H         1 <1>         0.026528 
     56 H          -5.199259   -1.110953   -0.893566 H         1 <1>         0.026528 
     57 H          -5.199257   -1.111389    0.893072 H         1 <1>         0.026528 
     58 H          -6.482712    1.055920    0.893635 H         1 <1>         0.026528 
     59 H          -6.482713    1.056342   -0.893044 H         1 <1>         0.026528 
     60 H          -7.762188   -1.113996   -0.893583 H         1 <1>         0.026528 
     61 H          -7.762188   -1.114424    0.893076 H         1 <1>         0.026528 
     62 H          -9.050839    1.049430    0.893654 H         1 <1>         0.026528 
     63 H          -9.050838    1.049864   -0.893085 H         1 <1>         0.026528 
     64 H         -10.327653   -1.121895   -0.893554 H         1 <1>         0.026528 
     65 H         -10.327652   -1.122311    0.893029 H         1 <1>         0.026528 
     66 H         -11.616828    1.041947    0.893594 H         1 <1>         0.026528 
     67 H         -11.616829    1.042382   -0.893028 H         1 <1>         0.026528 
     68 H         -12.896605   -1.127767   -0.893612 H         1 <1>         0.026520 
     69 H         -12.896602   -1.128200    0.893108 H         1 <1>         0.026520 
     70 H         -14.186499    1.038697    0.893754 H         1 <1>         0.026265 
     71 H         -14.186498    1.039126   -0.893171 H         1 <1>         0.026265 
     72 H         -16.356865    0.155717    0.000068 H         1 <1>         0.022978 
     73 H         -15.486967   -1.124454   -0.895268 H         1 <1>         0.022978 
     74 H         -15.486963   -1.124898    0.894778 H         1 <1>         0.022978 
     75 H          17.223058   -0.062950   -0.000135 H         1 <1>         0.052962 
     76 H          16.384698    1.231617   -0.899860 H         1 <1>         0.052962 
     77 H          16.384725    1.231422    0.899900 H         1 <1>         0.052962 
@<TRIPOS>BOND
     1    1    2 1    
     2    1   25 2    
     3    1   26 1    
     4    2    3 1    
     5    2   28 1    
     6    2   29 1    
     7    3    4 1    
     8    3   30 1    
     9    3   31 1    
    10    4    5 1    
    11    4   32 1    
    12    4   33 1    
    13    5    6 1    
    14    5   34 1    
    15    5   35 1    
    16    6    7 1    
    17    6   36 1    
    18    6   37 1    
    19    7    8 1    
    20    7   38 1    
    21    7   39 1    
    22    8    9 1    
    23    8   40 1    
    24    8   41 1    
    25    9   10 1    
    26    9   42 1    
    27    9   43 1    
    28   10   11 1    
    29   10   44 1    
    30   10   45 1    
    31   11   12 1    
    32   11   46 1    
    33   11   47 1    
    34   12   13 1    
    35   12   48 1    
    36   12   49 1    
    37   13   14 1    
    38   13   50 1    
    39   13   51 1    
    40   14   15 1    
    41   14   52 1    
    42   14   53 1    
    43   15   16 1    
    44   15   54 1    
    45   15   55 1    
    46   16   17 1    
    47   16   56 1    
    48   16   57 1    
    49   17   18 1    
    50   17   58 1    
    51   17   59 1    
    52   18   19 1    
    53   18   60 1    
    54   18   61 1    
    55   19   20 1    
    56   19   62 1    
    57   19   63 1    
    58   20   21 1    
    59   20   64 1    
    60   20   65 1    
    61   21   22 1    
    62   21   66 1    
    63   21   67 1    
    64   22   23 1    
    65   22   68 1    
    66   22   69 1    
    67   23   24 1    
    68   23   70 1    
    69   23   71 1    
    70   24   72 1    
    71   24   73 1    
    72   24   74 1    
    73   26   27 1    
    74   27   75 1    
    75   27   76 1    
    76   27   77 1    
@<TRIPOS>SUBSTRUCTURE
     1 ****        1 TEMP              0 ****  ****    0 ROOT 
@<TRIPOS>NORMAL
@<TRIPOS>FF_PBC
FORCE_FIELD_SETUP_FEATURE Force Field Setup information
v1.0  0 0.000000 0.000000 0.000000 0.000000 0.000000 0.000000 NONE 0 0 0 0 1 0 0 0 0 0 0 0 0
