@<TRIPOS>MOLECULE
MOL001109
   26    27     1     1     0
SMALL
GASTEIGER


@<TRIPOS>ATOM
      1 C          -1.871510    0.913687   -0.543873 C.3       1 <1>        -0.022069 
      2 C          -2.030800   -0.549356   -0.238697 C.2       1 <1>        -0.084264 
      3 C          -1.003161   -1.057778    0.441036 C.2       1 <1>        -0.080951 
      4 C           0.050188   -0.034303    0.740582 C.3       1 <1>        -0.005256 
      5 C          -0.496672    1.255375    0.085225 C.3       1 <1>        -0.024895 
      6 C          -1.860240    1.144802   -2.074558 C.3       1 <1>        -0.058674 
      7 C           1.558638   -0.300722    0.488947 C.3       1 <1>        -0.037340 
      8 C           2.081508   -1.300237    1.553084 C.3       1 <1>        -0.061870 
      9 C           1.772114   -0.853810   -0.944879 C.3       1 <1>        -0.061870 
     10 C          -0.371313    1.157333    1.623255 C.3       1 <1>        -0.039249 
     11 H          -2.668011    1.505257   -0.064034 H         1 <1>         0.034320 
     12 H          -2.899119   -1.132761   -0.544914 H         1 <1>         0.057191 
     13 H          -0.934332   -2.098891    0.753686 H         1 <1>         0.057478 
     14 H           0.216466    1.929106   -0.415771 H         1 <1>         0.031500 
     15 H          -1.689324    2.210161   -2.294576 H         1 <1>         0.023545 
     16 H          -2.826463    0.844767   -2.509446 H         1 <1>         0.023545 
     17 H          -1.060514    0.551574   -2.544577 H         1 <1>         0.023545 
     18 H           2.132421    0.637002    0.591909 H         1 <1>         0.030388 
     19 H           3.160607   -1.475172    1.420049 H         1 <1>         0.023260 
     20 H           1.914279   -0.895062    2.563464 H         1 <1>         0.023260 
     21 H           1.557782   -2.264616    1.471019 H         1 <1>         0.023260 
     22 H           2.842332   -1.034150   -1.130049 H         1 <1>         0.023260 
     23 H           1.407252   -0.130040   -1.689546 H         1 <1>         0.023260 
     24 H           1.228373   -1.800978   -1.081415 H         1 <1>         0.023260 
     25 H           0.439886    1.724699    2.104179 H         1 <1>         0.027685 
     26 H          -1.297528    1.028335    2.203720 H         1 <1>         0.027685 
@<TRIPOS>BOND
     1    1    2 1    
     2    1    5 1    
     3    1    6 1    
     4    1   11 1    
     5    2    3 2    
     6    2   12 1    
     7    3    4 1    
     8    3   13 1    
     9    4    5 1    
    10    4    7 1    
    11    4   10 1    
    12    5   10 1    
    13    5   14 1    
    14    6   15 1    
    15    6   16 1    
    16    6   17 1    
    17    7    8 1    
    18    7    9 1    
    19    7   18 1    
    20    8   19 1    
    21    8   20 1    
    22    8   21 1    
    23    9   22 1    
    24    9   23 1    
    25    9   24 1    
    26   10   25 1    
    27   10   26 1    
@<TRIPOS>SUBSTRUCTURE
     1 ****        1 TEMP              0 ****  ****    0 ROOT 
@<TRIPOS>NORMAL
@<TRIPOS>FF_PBC
FORCE_FIELD_SETUP_FEATURE Force Field Setup information
v1.0  0 0.000000 0.000000 0.000000 0.000000 0.000000 0.000000 NONE 0 0 0 0 1 0 0 0 0 0 0 0 0
