@<TRIPOS>MOLECULE
MOL002522
   31    30     1     1     0
SMALL
GASTEIGER


@<TRIPOS>ATOM
      1 C           0.686897   -1.531392   -1.181805 C.3       1 <1>        -0.041534 
      2 C          -0.635282   -0.741135   -0.918264 C.3       1 <1>        -0.046940 
      3 C           1.916463   -0.589394   -1.363189 C.3       1 <1>        -0.027119 
      4 C           0.937202   -2.610365   -0.089987 C.3       1 <1>        -0.062334 
      5 C          -0.653375    0.107348    0.385526 C.3       1 <1>        -0.034283 
      6 C           3.169750   -1.307080   -1.929368 C.3       1 <1>         0.044448 
      7 C          -1.961755    0.849103    0.560345 C.2       1 <1>        -0.085278 
      8 O           4.189387   -0.319348   -2.167663 O.3       1 <1>        -0.394998 
      9 C          -2.181629    1.812285    1.473459 C.2       1 <1>        -0.079617 
     10 C          -3.513215    2.528047    1.559329 C.3       1 <1>        -0.044050 
     11 C          -1.147008    2.269170    2.479182 C.3       1 <1>        -0.044050 
     12 H           0.532360   -2.062746   -2.137664 H         1 <1>         0.029893 
     13 H          -0.822491   -0.065479   -1.770381 H         1 <1>         0.027080 
     14 H          -1.472281   -1.458525   -0.876383 H         1 <1>         0.027080 
     15 H           1.653673    0.219724   -2.063840 H         1 <1>         0.028982 
     16 H           2.198016   -0.130829   -0.402610 H         1 <1>         0.028982 
     17 H           1.715593   -3.320557   -0.406037 H         1 <1>         0.023243 
     18 H           0.020029   -3.189592    0.096705 H         1 <1>         0.023243 
     19 H           1.258318   -2.145560    0.853432 H         1 <1>         0.023243 
     20 H          -0.509514   -0.542841    1.262235 H         1 <1>         0.030748 
     21 H           0.161648    0.845255    0.340160 H         1 <1>         0.030748 
     22 H           3.548222   -2.052862   -1.210792 H         1 <1>         0.055705 
     23 H           2.911983   -1.815255   -2.873977 H         1 <1>         0.055705 
     24 H          -2.776433    0.574572   -0.110349 H         1 <1>         0.057145 
     25 H           4.993300   -0.688133   -2.524321 H         1 <1>         0.209395 
     26 H          -3.949310    2.376768    2.558729 H         1 <1>         0.027427 
     27 H          -4.242885    2.178675    0.813183 H         1 <1>         0.027427 
     28 H          -3.351237    3.606476    1.402622 H         1 <1>         0.027427 
     29 H          -1.590950    2.273056    3.485530 H         1 <1>         0.027427 
     30 H          -0.834978    3.294176    2.229741 H         1 <1>         0.027427 
     31 H          -0.250300    1.636439    2.526850 H         1 <1>         0.027427 
@<TRIPOS>BOND
     1    1    2 1    
     2    1    3 1    
     3    1    4 1    
     4    1   12 1    
     5    2    5 1    
     6    2   13 1    
     7    2   14 1    
     8    3    6 1    
     9    3   15 1    
    10    3   16 1    
    11    4   17 1    
    12    4   18 1    
    13    4   19 1    
    14    5    7 1    
    15    5   20 1    
    16    5   21 1    
    17    6    8 1    
    18    6   22 1    
    19    6   23 1    
    20    7    9 2    
    21    7   24 1    
    22    8   25 1    
    23    9   10 1    
    24    9   11 1    
    25   10   26 1    
    26   10   27 1    
    27   10   28 1    
    28   11   29 1    
    29   11   30 1    
    30   11   31 1    
@<TRIPOS>SUBSTRUCTURE
     1 ****        1 TEMP              0 ****  ****    0 ROOT 
@<TRIPOS>NORMAL
@<TRIPOS>FF_PBC
FORCE_FIELD_SETUP_FEATURE Force Field Setup information
v1.0  0 0.000000 0.000000 0.000000 0.000000 0.000000 0.000000 NONE 0 0 0 0 1 0 0 0 0 0 0 0 0
