@<TRIPOS>MOLECULE
MOL004464
   17    17     1     1     0
SMALL
GASTEIGER


@<TRIPOS>ATOM
      1 C           0.888733    0.368483   -0.096827 C.ar      1 <1>        -0.029262 
      2 C           1.419573   -0.969178    0.260415 C.ar      1 <1>        -0.029503 
      3 C           0.553690   -2.031757    0.542203 C.ar      1 <1>         0.072739 
      4 C          -0.913725   -1.813770    0.481863 C.ar      1 <1>        -0.029503 
      5 C          -1.422733   -0.549289    0.144151 C.ar      1 <1>        -0.029262 
      6 C          -0.512963    0.581070   -0.155639 C.ar      1 <1>         0.075971 
      7 O           1.086690   -3.278448    0.875201 O.3       1 <1>        -0.359831 
      8 O          -1.072782    1.822227   -0.487225 O.3       1 <1>        -0.347910 
      9 C          -0.257538    2.965772   -0.790587 C.3       1 <1>         0.043026 
     10 H           1.594863    1.161682   -0.307085 H         1 <1>         0.064407 
     11 H           2.491168   -1.130912    0.305161 H         1 <1>         0.064400 
     12 H          -1.597558   -2.627855    0.697731 H         1 <1>         0.064400 
     13 H          -2.494602   -0.388259    0.099595 H         1 <1>         0.064407 
     14 H           0.427176   -3.939805    1.050322 H         1 <1>         0.217313 
     15 H          -0.930231    3.806393   -1.015630 H         1 <1>         0.052869 
     16 H           0.368769    3.244407    0.070740 H         1 <1>         0.052869 
     17 H           0.371574    2.779442   -1.674488 H         1 <1>         0.052869 
@<TRIPOS>BOND
     1    1    2 1    
     2    1    6 2    
     3    1   10 1    
     4    2    3 2    
     5    2   11 1    
     6    3    4 1    
     7    3    7 1    
     8    4    5 2    
     9    4   12 1    
    10    5    6 1    
    11    5   13 1    
    12    6    8 1    
    13    7   14 1    
    14    8    9 1    
    15    9   15 1    
    16    9   16 1    
    17    9   17 1    
@<TRIPOS>SUBSTRUCTURE
     1 ****        1 TEMP              0 ****  ****    0 ROOT 
@<TRIPOS>NORMAL
@<TRIPOS>FF_PBC
FORCE_FIELD_SETUP_FEATURE Force Field Setup information
v1.0  0 0.000000 0.000000 0.000000 0.000000 0.000000 0.000000 NONE 0 0 0 0 1 0 0 0 0 0 0 0 0
