@<TRIPOS>MOLECULE
MOL002304
  178   188     1     1     0
SMALL
GASTEIGER


@<TRIPOS>ATOM
      1 C          -7.782926   13.230937   -0.009330 C.ar      1 <1>         0.132457 
      2 C          -8.436069   11.890959   -0.451006 C.ar      1 <1>         0.105520 
      3 C          -7.609889   10.660672   -0.547760 C.ar      1 <1>        -0.016357 
      4 C          -6.118356   10.696171   -0.184245 C.ar      1 <1>         0.051876 
      5 C          -5.488570   11.971052    0.233705 C.ar      1 <1>        -0.016357 
      6 C          -6.336312   13.273229    0.313337 C.ar      1 <1>         0.105520 
      7 O          -8.546981   14.395311    0.088579 O.3       1 <1>        -0.355395 
      8 O          -5.724678   14.469541    0.686422 O.3       1 <1>        -0.357199 
      9 O          -9.801262   11.866727   -0.746498 O.3       1 <1>        -0.357199 
     10 C          -5.276698    9.440709   -0.247158 C.2       1 <1>         0.299009 
     11 O          -4.079185    9.451956    0.345790 O.3       1 <1>        -0.271238 
     12 O          -5.705046    8.459901   -0.833735 O.2       1 <1>        -0.258823 
     13 C          -3.224291    8.344945    0.373596 C.ar      1 <1>         0.119349 
     14 C          -3.751493    6.898817    0.527351 C.ar      1 <1>        -0.015483 
     15 C          -2.829252    5.730634    0.596209 C.ar      1 <1>         0.051520 
     16 C          -1.302944    6.047736    0.579402 C.ar      1 <1>        -0.016369 
     17 C          -0.798272    7.425312    0.389377 C.ar      1 <1>         0.105546 
     18 C          -1.766847    8.588912    0.276903 C.ar      1 <1>         0.133347 
     19 O          -1.268389    9.878906    0.082185 O.3       1 <1>        -0.355377 
     20 O           0.578974    7.641142    0.305089 O.3       1 <1>        -0.357199 
     21 C          -3.489919    4.358703    0.688533 C.2       1 <1>         0.294052 
     22 O          -4.651827    4.350436    1.060021 O.2       1 <1>        -0.259223 
     23 O          -3.010462    3.131284    0.394710 O.3       1 <1>        -0.308753 
     24 C          -1.615560    2.990133    0.092762 C.3       1 <1>         0.086199 
     25 C          -1.302560    1.557838   -0.409873 C.3       1 <1>         0.114768 
     26 O           0.113485    1.384037   -0.678583 O.3       1 <1>        -0.340084 
     27 C          -1.823460    0.444857    0.535361 C.3       1 <1>         0.125906 
     28 C          -0.978699   -0.822774    0.225814 C.3       1 <1>         0.128902 
     29 C           0.456097   -0.578965    0.797522 C.3       1 <1>         0.148466 
     30 C           0.888170    0.892610    0.445970 C.3       1 <1>         0.194541 
     31 O           2.294316    0.942688    0.119045 O.3       1 <1>        -0.312514 
     32 O           1.351026   -1.603156    0.294492 O.3       1 <1>        -0.300280 
     33 O          -1.680829   -1.994541    0.716113 O.3       1 <1>        -0.302596 
     34 C          -1.317378   -3.139711    0.116740 C.2       1 <1>         0.294390 
     35 O          -0.338348   -3.215149   -0.605434 O.2       1 <1>        -0.259212 
     36 C          -2.148971   -4.392938    0.255564 C.ar      1 <1>         0.051530 
     37 C          -3.616692   -4.309155    0.630609 C.ar      1 <1>        -0.016369 
     38 C          -4.445325   -5.535496    0.637459 C.ar      1 <1>         0.105546 
     39 C          -3.816064   -6.905303    0.316092 C.ar      1 <1>         0.133347 
     40 C          -2.355660   -6.996120    0.030581 C.ar      1 <1>         0.119349 
     41 C          -1.532344   -5.714305   -0.004969 C.ar      1 <1>        -0.015483 
     42 O          -5.807861   -5.433645    0.917216 O.3       1 <1>        -0.357199 
     43 O          -4.645618   -8.026534    0.282406 O.3       1 <1>        -0.355377 
     44 O          -1.698381   -8.209011   -0.221099 O.3       1 <1>        -0.271238 
     45 C          -1.909248   -9.296806    0.525069 C.2       1 <1>         0.299009 
     46 O          -2.761990   -9.315619    1.398514 O.2       1 <1>        -0.258823 
     47 C          -1.069329  -10.533879    0.291286 C.ar      1 <1>         0.051876 
     48 C          -1.653718  -11.914603    0.606397 C.ar      1 <1>        -0.016357 
     49 C          -0.842596  -13.134662    0.397435 C.ar      1 <1>         0.105520 
     50 C           0.733017  -12.967514   -0.175200 C.ar      1 <1>         0.132457 
     51 C           1.234980  -11.600862   -0.457390 C.ar      1 <1>         0.105520 
     52 C           0.313612  -10.387021   -0.231166 C.ar      1 <1>        -0.016357 
     53 O           2.539604  -11.435860   -0.926674 O.3       1 <1>        -0.357199 
     54 O           1.532013  -14.093791   -0.376624 O.3       1 <1>        -0.355395 
     55 O          -1.375815  -14.390679    0.670474 O.3       1 <1>        -0.357199 
     56 C           2.550257   -1.692029    0.893733 C.2       1 <1>         0.294463 
     57 C           3.497739   -2.780107    0.436502 C.ar      1 <1>         0.051532 
     58 O           2.891111   -0.947020    1.799670 O.2       1 <1>        -0.259211 
     59 C           2.916050   -4.045783   -0.186938 C.ar      1 <1>        -0.016369 
     60 C           3.797773   -5.137137   -0.651125 C.ar      1 <1>         0.105546 
     61 C           5.314899   -5.001467   -0.523259 C.ar      1 <1>         0.133347 
     62 C           5.900932   -3.769846    0.074315 C.ar      1 <1>         0.119349 
     63 C           4.971878   -2.655902    0.570753 C.ar      1 <1>        -0.015483 
     64 O           3.231727   -6.285867   -1.203061 O.3       1 <1>        -0.357199 
     65 O           6.122120   -6.044048   -0.977411 O.3       1 <1>        -0.355377 
     66 O           7.288096   -3.601471    0.170009 O.3       1 <1>        -0.271238 
     67 C           8.035526   -4.619895    0.609465 C.2       1 <1>         0.299009 
     68 O           7.523804   -5.602808    1.122709 O.2       1 <1>        -0.258823 
     69 C           9.539081   -4.571770    0.452184 C.ar      1 <1>         0.051876 
     70 C          10.372278   -5.833635    0.664556 C.ar      1 <1>        -0.016357 
     71 C          11.842802   -5.801927    0.492532 C.ar      1 <1>         0.105520 
     72 C          12.538814   -4.491021    0.103313 C.ar      1 <1>         0.132457 
     73 C          11.736001   -3.258111   -0.092998 C.ar      1 <1>         0.105520 
     74 C          10.210959   -3.304251    0.081891 C.ar      1 <1>        -0.016357 
     75 O          12.384377   -2.069321   -0.435206 O.3       1 <1>        -0.357199 
     76 O          13.924906   -4.471880   -0.063774 O.3       1 <1>        -0.355395 
     77 O          12.584511   -6.967467    0.682515 O.3       1 <1>        -0.357199 
     78 C           2.895224    2.140574   -0.061049 C.2       1 <1>         0.079685 
     79 C           2.220886    3.301472   -0.126861 C.2       1 <1>        -0.067833 
     80 C           4.403900    2.113992   -0.194921 C.ar      1 <1>         0.009547 
     81 C           5.066268    0.804930   -0.632328 C.ar      1 <1>        -0.019639 
     82 C           6.533452    0.710300   -0.799596 C.ar      1 <1>         0.105441 
     83 C           7.411144    1.944424   -0.564083 C.ar      1 <1>         0.133234 
     84 C           6.780475    3.219851   -0.147214 C.ar      1 <1>         0.115853 
     85 C           5.270183    3.292327    0.075177 C.ar      1 <1>        -0.018864 
     86 O           7.104488   -0.506370   -1.171993 O.3       1 <1>        -0.357200 
     87 O           8.794791    1.850632   -0.735833 O.3       1 <1>        -0.355378 
     88 O           7.578047    4.349034    0.057766 O.3       1 <1>        -0.306614 
     89 C           7.398130    5.483727   -0.639323 C.2       1 <1>         0.083406 
     90 C           6.506965    5.576436   -1.639038 C.2       1 <1>        -0.067430 
     91 C           8.269538    6.664693   -0.266307 C.ar      1 <1>         0.009924 
     92 C           9.706020    6.401530    0.186803 C.ar      1 <1>        -0.019625 
     93 C          10.613840    7.519461    0.528009 C.ar      1 <1>         0.105416 
     94 C          10.107421    8.966265    0.446598 C.ar      1 <1>         0.132455 
     95 C           8.707471    9.234333    0.033291 C.ar      1 <1>         0.105416 
     96 C           7.776233    8.063265   -0.324375 C.ar      1 <1>        -0.019625 
     97 O           8.257966   10.556444   -0.021964 O.3       1 <1>        -0.357200 
     98 O          10.970764   10.017070    0.765698 O.3       1 <1>        -0.355395 
     99 O          11.926875    7.250588    0.914505 O.3       1 <1>        -0.357200 
    100 O          -3.263252    0.340392    0.584873 O.3       1 <1>        -0.302711 
    101 C          -3.878997   -0.296730   -0.418829 C.2       1 <1>         0.294388 
    102 O          -3.289294   -0.914952   -1.289545 O.2       1 <1>        -0.259212 
    103 C          -5.389098   -0.235703   -0.441661 C.ar      1 <1>         0.051530 
    104 C          -6.063654    1.095709   -0.159820 C.ar      1 <1>        -0.016369 
    105 C          -7.536230    1.221797   -0.222709 C.ar      1 <1>         0.105546 
    106 C          -8.397421   -0.005197   -0.533422 C.ar      1 <1>         0.133347 
    107 C          -7.747087   -1.331513   -0.711046 C.ar      1 <1>         0.119349 
    108 C          -6.215574   -1.436019   -0.712605 C.ar      1 <1>        -0.015483 
    109 O          -8.126758    2.467761   -0.013337 O.3       1 <1>        -0.357199 
    110 O          -9.782138    0.151153   -0.652700 O.3       1 <1>        -0.355377 
    111 O          -8.515354   -2.488468   -0.865587 O.3       1 <1>        -0.271238 
    112 C          -9.390997   -2.725411    0.122293 C.2       1 <1>         0.299009 
    113 O          -9.489693   -1.986242    1.087832 O.2       1 <1>        -0.258823 
    114 C         -10.301064   -3.929431    0.052363 C.ar      1 <1>         0.051876 
    115 C         -11.741416   -3.821250    0.555627 C.ar      1 <1>        -0.016357 
    116 C         -12.648538   -4.987860    0.478652 C.ar      1 <1>         0.105520 
    117 C         -12.131259   -6.321057   -0.076714 C.ar      1 <1>         0.132457 
    118 C         -10.727687   -6.435884   -0.545610 C.ar      1 <1>         0.105520 
    119 C          -9.801430   -5.211859   -0.492727 C.ar      1 <1>        -0.016357 
    120 O         -13.968665   -4.864404    0.909677 O.3       1 <1>        -0.357199 
    121 O         -12.994405   -7.415739   -0.140004 O.3       1 <1>        -0.355395 
    122 O         -10.269857   -7.662355   -1.029040 O.3       1 <1>        -0.357199 
    123 H          -8.056319    9.728064   -0.870475 H         1 <1>         0.065181 
    124 H          -4.432888   12.012669    0.480917 H         1 <1>         0.065181 
    125 H          -9.454369   14.225224   -0.145802 H         1 <1>         0.217501 
    126 H          -6.337858   15.198293    0.650637 H         1 <1>         0.217423 
    127 H         -10.137723   10.992458   -0.895950 H         1 <1>         0.217423 
    128 H          -4.821089    6.735012    0.602416 H         1 <1>         0.065206 
    129 H          -0.538265    5.298776    0.700579 H         1 <1>         0.065181 
    130 H          -1.973470   10.514443    0.018070 H         1 <1>         0.217502 
    131 H           0.774655    8.554303    0.118312 H         1 <1>         0.217423 
    132 H          -1.301524    3.672007   -0.715190 H         1 <1>         0.059272 
    133 H          -1.047360    3.148109    1.019989 H         1 <1>         0.059272 
    134 H          -1.815962    1.440160   -1.377998 H         1 <1>         0.064721 
    135 H          -1.618047    0.747400    1.574827 H         1 <1>         0.065613 
    136 H          -0.895503   -0.890022   -0.875528 H         1 <1>         0.065725 
    137 H           0.372881   -0.707643    1.892034 H         1 <1>         0.068055 
    138 H           0.745459    1.513298    1.348018 H         1 <1>         0.094188 
    139 H          -4.065630   -3.350861    0.865910 H         1 <1>         0.065181 
    140 H          -0.472512   -5.784134   -0.224107 H         1 <1>         0.065206 
    141 H          -6.234697   -6.280611    0.842230 H         1 <1>         0.217423 
    142 H          -4.342688   -8.692917    0.890812 H         1 <1>         0.217502 
    143 H          -2.666466  -12.007670    0.984613 H         1 <1>         0.065181 
    144 H           0.686685   -9.393126   -0.452543 H         1 <1>         0.065181 
    145 H           2.810642  -10.525739   -0.980305 H         1 <1>         0.217423 
    146 H           2.389020  -13.853660   -0.716500 H         1 <1>         0.217501 
    147 H          -0.730927  -15.067978    0.493558 H         1 <1>         0.217423 
    148 H           1.847238   -4.162010   -0.294866 H         1 <1>         0.065181 
    149 H           5.403437   -1.765649    1.015184 H         1 <1>         0.065206 
    150 H           3.901731   -6.896821   -1.491620 H         1 <1>         0.217423 
    151 H           6.516340   -6.492635   -0.234906 H         1 <1>         0.217502 
    152 H           9.892485   -6.768141    0.936473 H         1 <1>         0.065181 
    153 H           9.620951   -2.405874   -0.064751 H         1 <1>         0.065181 
    154 H          11.794091   -1.329019   -0.517400 H         1 <1>         0.217423 
    155 H          14.223828   -3.618175   -0.362526 H         1 <1>         0.217501 
    156 H          13.511932   -6.808929    0.534943 H         1 <1>         0.217423 
    157 H           2.723273    4.246841   -0.304024 H         1 <1>         0.056042 
    158 H           1.151343    3.425150   -0.031211 H         1 <1>         0.056042 
    159 H           4.455843   -0.068413   -0.831857 H         1 <1>         0.065076 
    160 H           4.863284    4.228594    0.435948 H         1 <1>         0.065100 
    161 H           8.048757   -0.429427   -1.256176 H         1 <1>         0.217423 
    162 H           9.227591    2.673155   -0.528621 H         1 <1>         0.217502 
    163 H           6.394685    6.500431   -2.202898 H         1 <1>         0.056056 
    164 H           5.862950    4.763347   -1.966704 H         1 <1>         0.056056 
    165 H          10.074505    5.384366    0.252547 H         1 <1>         0.065076 
    166 H           6.751391    8.268143   -0.612304 H         1 <1>         0.065076 
    167 H           7.336854   10.636444   -0.238901 H         1 <1>         0.217423 
    168 H          10.538073   10.859607    0.662366 H         1 <1>         0.217501 
    169 H          12.404267    8.054983    1.090505 H         1 <1>         0.217423 
    170 H          -5.464886    1.969224    0.074536 H         1 <1>         0.065181 
    171 H          -5.745726   -2.395984   -0.889803 H         1 <1>         0.065206 
    172 H          -9.076632    2.403278   -0.019963 H         1 <1>         0.217423 
    173 H         -10.186083   -0.562325   -1.133376 H         1 <1>         0.217502 
    174 H         -12.107298   -2.885170    0.965607 H         1 <1>         0.065181 
    175 H          -8.778095   -5.282873   -0.845143 H         1 <1>         0.065181 
    176 H         -14.454548   -5.666803    0.746851 H         1 <1>         0.217423 
    177 H         -12.559150   -8.177906   -0.509021 H         1 <1>         0.217501 
    178 H          -9.335634   -7.675831   -1.202595 H         1 <1>         0.217423 
@<TRIPOS>BOND
     1    1    2 2    
     2    1    6 1    
     3    1    7 1    
     4    2    3 1    
     5    2    9 1    
     6    3    4 2    
     7    3  123 1    
     8    4    5 1    
     9    4   10 1    
    10    5    6 2    
    11    5  124 1    
    12    6    8 1    
    13    7  125 1    
    14    8  126 1    
    15    9  127 1    
    16   10   11 1    
    17   10   12 2    
    18   11   13 1    
    19   13   14 2    
    20   13   18 1    
    21   14   15 1    
    22   14  128 1    
    23   15   16 2    
    24   15   21 1    
    25   16   17 1    
    26   16  129 1    
    27   17   18 2    
    28   17   20 1    
    29   18   19 1    
    30   19  130 1    
    31   20  131 1    
    32   21   22 2    
    33   21   23 1    
    34   23   24 1    
    35   24   25 1    
    36   24  132 1    
    37   24  133 1    
    38   25   26 1    
    39   25   27 1    
    40   25  134 1    
    41   26   30 1    
    42   27   28 1    
    43   27  100 1    
    44   27  135 1    
    45   28   29 1    
    46   28   33 1    
    47   28  136 1    
    48   29   30 1    
    49   29   32 1    
    50   29  137 1    
    51   30   31 1    
    52   30  138 1    
    53   31   78 1    
    54   32   56 1    
    55   33   34 1    
    56   34   35 2    
    57   34   36 1    
    58   36   37 2    
    59   36   41 1    
    60   37   38 1    
    61   37  139 1    
    62   38   39 2    
    63   38   42 1    
    64   39   40 1    
    65   39   43 1    
    66   40   41 2    
    67   40   44 1    
    68   41  140 1    
    69   42  141 1    
    70   43  142 1    
    71   44   45 1    
    72   45   46 2    
    73   45   47 1    
    74   47   48 2    
    75   47   52 1    
    76   48   49 1    
    77   48  143 1    
    78   49   50 2    
    79   49   55 1    
    80   50   51 1    
    81   50   54 1    
    82   51   52 2    
    83   51   53 1    
    84   52  144 1    
    85   53  145 1    
    86   54  146 1    
    87   55  147 1    
    88   56   57 1    
    89   56   58 2    
    90   57   59 2    
    91   57   63 1    
    92   59   60 1    
    93   59  148 1    
    94   60   61 2    
    95   60   64 1    
    96   61   62 1    
    97   61   65 1    
    98   62   63 2    
    99   62   66 1    
   100   63  149 1    
   101   64  150 1    
   102   65  151 1    
   103   66   67 1    
   104   67   68 2    
   105   67   69 1    
   106   69   70 2    
   107   69   74 1    
   108   70   71 1    
   109   70  152 1    
   110   71   72 2    
   111   71   77 1    
   112   72   73 1    
   113   72   76 1    
   114   73   74 2    
   115   73   75 1    
   116   74  153 1    
   117   75  154 1    
   118   76  155 1    
   119   77  156 1    
   120   78   79 2    
   121   78   80 1    
   122   79  157 1    
   123   79  158 1    
   124   80   81 2    
   125   80   85 1    
   126   81   82 1    
   127   81  159 1    
   128   82   83 2    
   129   82   86 1    
   130   83   84 1    
   131   83   87 1    
   132   84   85 2    
   133   84   88 1    
   134   85  160 1    
   135   86  161 1    
   136   87  162 1    
   137   88   89 1    
   138   89   90 2    
   139   89   91 1    
   140   90  163 1    
   141   90  164 1    
   142   91   92 2    
   143   91   96 1    
   144   92   93 1    
   145   92  165 1    
   146   93   94 2    
   147   93   99 1    
   148   94   95 1    
   149   94   98 1    
   150   95   96 2    
   151   95   97 1    
   152   96  166 1    
   153   97  167 1    
   154   98  168 1    
   155   99  169 1    
   156  100  101 1    
   157  101  102 2    
   158  101  103 1    
   159  103  104 2    
   160  103  108 1    
   161  104  105 1    
   162  104  170 1    
   163  105  106 2    
   164  105  109 1    
   165  106  107 1    
   166  106  110 1    
   167  107  108 2    
   168  107  111 1    
   169  108  171 1    
   170  109  172 1    
   171  110  173 1    
   172  111  112 1    
   173  112  113 2    
   174  112  114 1    
   175  114  115 2    
   176  114  119 1    
   177  115  116 1    
   178  115  174 1    
   179  116  117 2    
   180  116  120 1    
   181  117  118 1    
   182  117  121 1    
   183  118  119 2    
   184  118  122 1    
   185  119  175 1    
   186  120  176 1    
   187  121  177 1    
   188  122  178 1    
@<TRIPOS>SUBSTRUCTURE
     1 ****        1 TEMP              0 ****  ****    0 ROOT 
@<TRIPOS>NORMAL
@<TRIPOS>FF_PBC
FORCE_FIELD_SETUP_FEATURE Force Field Setup information
v1.0  0 0.000000 0.000000 0.000000 0.000000 0.000000 0.000000 NONE 0 0 0 0 1 0 0 0 0 0 0 0 0
