@<TRIPOS>MOLECULE
MOL012957
   23    23     1     1     0
SMALL
GASTEIGER


@<TRIPOS>ATOM
      1 O           0.562800   -1.334885    0.570822 O.3       1 <1>        -0.332874 
      2 O          -1.708135    2.122175   -0.223349 O.3       1 <1>        -0.386388 
      3 O           0.824010    1.615813    1.013975 O.3       1 <1>        -0.386033 
      4 O          -3.035341   -0.447818    0.283693 O.3       1 <1>        -0.384110 
      5 O          -1.016454   -2.045653   -0.994381 O.3       1 <1>        -0.364870 
      6 O           3.295739    0.504550   -0.985836 O.3       1 <1>        -0.329249 
      7 O           3.182585   -0.727644    0.880844 O.2       1 <1>        -0.262180 
      8 C          -1.059621    0.850928   -0.413634 C.3       1 <1>         0.114491 
      9 C           0.477678    0.987372   -0.236521 C.3       1 <1>         0.119030 
     10 C          -1.634560   -0.225964    0.542009 C.3       1 <1>         0.133953 
     11 C           1.156731   -0.401108   -0.362329 C.3       1 <1>         0.174370 
     12 C          -0.842943   -1.543770    0.340543 C.3       1 <1>         0.185916 
     13 C           2.631187   -0.230453   -0.089271 C.2       1 <1>         0.291467 
     14 H          -1.281702    0.528515   -1.444696 H         1 <1>         0.064771 
     15 H           0.849051    1.662882   -1.025761 H         1 <1>         0.065129 
     16 H          -1.514294    0.096737    1.589559 H         1 <1>         0.067090 
     17 H           1.069337   -0.777429   -1.394180 H         1 <1>         0.072940 
     18 H          -1.220682   -2.279845    1.072371 H         1 <1>         0.093558 
     19 H          -1.514449    2.501578    0.628623 H         1 <1>         0.210005 
     20 H           0.658498    1.069855    1.775730 H         1 <1>         0.210020 
     21 H          -3.547464    0.352391    0.359621 H         1 <1>         0.210110 
     22 H          -0.548628   -2.864410   -1.126134 H         1 <1>         0.212561 
     23 H           4.216655    0.586686   -0.761697 H         1 <1>         0.220293 
@<TRIPOS>BOND
     1   11    1 1    
     2    1   12 1    
     3    8    2 1    
     4    2   19 1    
     5    9    3 1    
     6    3   20 1    
     7   10    4 1    
     8    4   21 1    
     9   12    5 1    
    10    5   22 1    
    11   13    6 1    
    12    6   23 1    
    13   13    7 2    
    14    9    8 1    
    15    8   10 1    
    16    8   14 1    
    17   11    9 1    
    18    9   15 1    
    19   12   10 1    
    20   10   16 1    
    21   11   13 1    
    22   11   17 1    
    23   12   18 1    
@<TRIPOS>SUBSTRUCTURE
     1 ****        2 TEMP              0 ****  ****    0 ROOT 
@<TRIPOS>NORMAL
@<TRIPOS>FF_PBC
FORCE_FIELD_SETUP_FEATURE Force Field Setup information
v1.0  0 0.000000 0.000000 0.000000 0.000000 0.000000 0.000000 NONE 0 0 0 0 1 0 0 0 0 0 0 0 0
