@<TRIPOS>MOLECULE
MOL004935
   46    48     1     1     0
SMALL
GASTEIGER


@<TRIPOS>ATOM
      1 C           0.988523   -0.619090   -1.793571 C.3       1 <1>         0.097249 
      2 C           1.463313   -1.946588   -1.152154 C.3       1 <1>         0.041565 
      3 C           2.961322   -2.018867   -1.245114 C.2       1 <1>         0.170906 
      4 C           3.764325   -0.738540   -1.223737 C.ar      1 <1>         0.077223 
      5 C           2.998196    0.529111   -1.184907 C.ar      1 <1>         0.092361 
      6 O           1.605538    0.504585   -1.147678 O.3       1 <1>        -0.335585 
      7 C           3.633254    1.706003   -1.182135 C.ar      1 <1>        -0.001026 
      8 C           5.113201    1.757364   -1.222795 C.ar      1 <1>         0.077503 
      9 C           5.816488    0.597095   -1.246006 C.ar      1 <1>        -0.001314 
     10 C           5.117102   -0.711720   -1.241956 C.ar      1 <1>         0.087967 
     11 O           3.528885   -3.097599   -1.334094 O.2       1 <1>        -0.291783 
     12 O           5.745529    3.003556   -1.235426 O.3       1 <1>        -0.359667 
     13 O           5.882226   -1.884257   -1.258685 O.3       1 <1>        -0.358967 
     14 C          -0.523965   -0.416505   -1.634171 C.ar      1 <1>        -0.015121 
     15 C          -1.412531   -0.455740   -2.820870 C.ar      1 <1>        -0.023728 
     16 C          -2.783683   -0.251676   -2.678543 C.ar      1 <1>         0.102807 
     17 C          -3.358141   -0.003280   -1.333076 C.ar      1 <1>         0.105697 
     18 C          -2.531731    0.052994   -0.196406 C.ar      1 <1>        -0.011066 
     19 C          -1.072091   -0.176280   -0.363043 C.ar      1 <1>        -0.050009 
     20 C          -3.208472    0.348581    1.153557 C.3       1 <1>        -0.006717 
     21 C          -2.376243    0.668634    2.376110 C.2       1 <1>        -0.080897 
     22 C          -2.860677    0.620921    3.629081 C.2       1 <1>        -0.079307 
     23 C          -1.981266    0.884975    4.832780 C.3       1 <1>        -0.044040 
     24 C          -4.307168    0.304072    3.950047 C.3       1 <1>        -0.044040 
     25 O          -4.733394    0.175707   -1.209079 O.3       1 <1>        -0.357038 
     26 O          -3.605422   -0.282297   -3.806218 O.3       1 <1>        -0.357261 
     27 H           1.261688   -0.604115   -2.862237 H         1 <1>         0.065572 
     28 H           1.008201   -2.798990   -1.679722 H         1 <1>         0.037400 
     29 H           1.179696   -1.991224   -0.090571 H         1 <1>         0.037400 
     30 H           3.064374    2.627469   -1.152600 H         1 <1>         0.066932 
     31 H           6.900702    0.602355   -1.272843 H         1 <1>         0.066923 
     32 H           6.695950    2.975689   -1.226924 H         1 <1>         0.217316 
     33 H           5.380437   -2.693233   -1.201255 H         1 <1>         0.217342 
     34 H          -1.007892   -0.639808   -3.810638 H         1 <1>         0.064759 
     35 H          -0.409732   -0.160590    0.492408 H         1 <1>         0.062473 
     36 H          -3.821021   -0.540494    1.364327 H         1 <1>         0.035641 
     37 H          -3.868927    1.215160    0.995876 H         1 <1>         0.035641 
     38 H          -1.337317    0.963626    2.245794 H         1 <1>         0.057472 
     39 H          -0.917046    0.994360    4.576929 H         1 <1>         0.027427 
     40 H          -2.074494    0.044130    5.537229 H         1 <1>         0.027427 
     41 H          -2.311613    1.806470    5.335596 H         1 <1>         0.027427 
     42 H          -4.997882    0.515685    3.121844 H         1 <1>         0.027427 
     43 H          -4.644131    0.912736    4.802436 H         1 <1>         0.027427 
     44 H          -4.390663   -0.759291    4.219877 H         1 <1>         0.027427 
     45 H          -5.139956   -0.621257   -0.885621 H         1 <1>         0.217432 
     46 H          -4.500212   -0.041458   -3.591234 H         1 <1>         0.217422 
@<TRIPOS>BOND
     1    1    2 1    
     2    1    6 1    
     3    1   14 1    
     4    1   27 1    
     5    2    3 1    
     6    2   28 1    
     7    2   29 1    
     8    3    4 1    
     9    3   11 2    
    10    4    5 1    
    11    4   10 2    
    12    5    6 1    
    13    5    7 2    
    14    7    8 1    
    15    7   30 1    
    16    8    9 2    
    17    8   12 1    
    18    9   10 1    
    19    9   31 1    
    20   10   13 1    
    21   12   32 1    
    22   13   33 1    
    23   14   15 1    
    24   14   19 2    
    25   15   16 2    
    26   15   34 1    
    27   16   17 1    
    28   16   26 1    
    29   17   18 2    
    30   17   25 1    
    31   18   19 1    
    32   18   20 1    
    33   19   35 1    
    34   20   21 1    
    35   20   36 1    
    36   20   37 1    
    37   21   22 2    
    38   21   38 1    
    39   22   23 1    
    40   22   24 1    
    41   23   39 1    
    42   23   40 1    
    43   23   41 1    
    44   24   42 1    
    45   24   43 1    
    46   24   44 1    
    47   25   45 1    
    48   26   46 1    
@<TRIPOS>SUBSTRUCTURE
     1 ****        1 TEMP              0 ****  ****    0 ROOT 
@<TRIPOS>NORMAL
@<TRIPOS>FF_PBC
FORCE_FIELD_SETUP_FEATURE Force Field Setup information
v1.0  0 0.000000 0.000000 0.000000 0.000000 0.000000 0.000000 NONE 0 0 0 0 1 0 0 0 0 0 0 0 0
