@<TRIPOS>MOLECULE
MOL006312
   33    34     1     1     0
SMALL
GASTEIGER


@<TRIPOS>ATOM
      1 C          -2.444639   -2.339819   -0.926868 C.3       1 <1>        -0.039133 
      2 C          -2.334194   -1.031624   -0.140035 C.ar      1 <1>        -0.042709 
      3 C          -1.102309   -0.234163    0.088962 C.ar      1 <1>        -0.014457 
      4 C          -3.377146   -0.400977    0.475341 C.ar      1 <1>        -0.057680 
      5 C          -1.497602    0.940952    0.897232 C.ar      1 <1>        -0.014706 
      6 C           0.113815   -0.599943   -0.394449 C.ar      1 <1>        -0.050338 
      7 C          -2.870416    0.825169    1.123376 C.ar      1 <1>        -0.053505 
      8 C          -0.663348    2.058208    1.403242 C.ar      1 <1>        -0.042727 
      9 C           1.417681    0.097597   -0.240626 C.ar      1 <1>        -0.044201 
     10 C          -1.380951    3.147598    2.221819 C.3       1 <1>        -0.039133 
     11 C           0.699897    2.182637    1.189336 C.ar      1 <1>        -0.057996 
     12 C           2.639841   -0.580915   -0.913567 C.3       1 <1>        -0.021496 
     13 C           1.636470    1.297426    0.449258 C.ar      1 <1>        -0.058040 
     14 C           2.467422   -0.655116   -2.455945 C.3       1 <1>        -0.058650 
     15 C           2.921372   -1.979209   -0.297381 C.3       1 <1>        -0.058650 
     16 H          -1.806855   -3.104820   -0.459819 H         1 <1>         0.027771 
     17 H          -3.483601   -2.701949   -0.935113 H         1 <1>         0.027771 
     18 H          -2.119905   -2.173529   -1.964687 H         1 <1>         0.027771 
     19 H          -4.407310   -0.739305    0.488631 H         1 <1>         0.062056 
     20 H           0.123195   -1.518975   -0.962746 H         1 <1>         0.062650 
     21 H          -3.493835    1.512256    1.682621 H         1 <1>         0.062379 
     22 H          -2.165935    3.606149    1.601969 H         1 <1>         0.027771 
     23 H          -1.839442    2.687741    3.110061 H         1 <1>         0.027771 
     24 H          -0.716931    3.953319    2.568560 H         1 <1>         0.027771 
     25 H           1.176114    3.057040    1.622472 H         1 <1>         0.062046 
     26 H           3.559338    0.006704   -0.746224 H         1 <1>         0.034345 
     27 H           2.656778    1.667267    0.461341 H         1 <1>         0.062046 
     28 H           1.642995   -1.320492   -2.748571 H         1 <1>         0.023545 
     29 H           2.262060    0.350789   -2.854561 H         1 <1>         0.023545 
     30 H           3.389359   -1.033673   -2.925210 H         1 <1>         0.023545 
     31 H           2.113326   -2.693910   -0.507884 H         1 <1>         0.023545 
     32 H           3.030669   -1.887966    0.794711 H         1 <1>         0.023545 
     33 H           3.855489   -2.395567   -0.706743 H         1 <1>         0.023545 
@<TRIPOS>BOND
     1    1    2 1    
     2    1   16 1    
     3    1   17 1    
     4    1   18 1    
     5    2    3 1    
     6    2    4 2    
     7    3    5 1    
     8    3    6 2    
     9    4    7 1    
    10    4   19 1    
    11    5    7 2    
    12    5    8 1    
    13    6    9 1    
    14    6   20 1    
    15    7   21 1    
    16    8   10 1    
    17    8   11 2    
    18    9   12 1    
    19    9   13 2    
    20   10   22 1    
    21   10   23 1    
    22   10   24 1    
    23   11   13 1    
    24   11   25 1    
    25   12   14 1    
    26   12   15 1    
    27   12   26 1    
    28   13   27 1    
    29   14   28 1    
    30   14   29 1    
    31   14   30 1    
    32   15   31 1    
    33   15   32 1    
    34   15   33 1    
@<TRIPOS>SUBSTRUCTURE
     1 ****        1 TEMP              0 ****  ****    0 ROOT 
@<TRIPOS>NORMAL
@<TRIPOS>FF_PBC
FORCE_FIELD_SETUP_FEATURE Force Field Setup information
v1.0  0 0.000000 0.000000 0.000000 0.000000 0.000000 0.000000 NONE 0 0 0 0 1 0 0 0 0 0 0 0 0
