@<TRIPOS>MOLECULE
MOL004931
   48    50     1     1     0
SMALL
GASTEIGER


@<TRIPOS>ATOM
      1 C          -2.946555   -1.640642    2.145940 C.ar      1 <1>         0.099001 
      2 C          -2.726602   -2.919933    1.443067 C.ar      1 <1>         0.084561 
      3 C          -3.505213   -4.049947    1.747703 C.ar      1 <1>         0.088401 
      4 C          -4.574395   -3.930820    2.771202 C.ar      1 <1>        -0.001302 
      5 C          -4.798196   -2.717015    3.430330 C.ar      1 <1>         0.077519 
      6 C          -3.950877   -1.539895    3.111622 C.ar      1 <1>        -0.000529 
      7 C          -1.642001   -2.904486    0.397157 C.2       1 <1>         0.223296 
      8 C          -0.997196   -1.614297    0.107902 C.2       1 <1>         0.154520 
      9 C          -1.259622   -0.523266    0.850714 C.2       1 <1>         0.123940 
     10 O          -2.159898   -0.527423    1.849375 O.3       1 <1>        -0.305122 
     11 O          -3.274795   -5.256141    1.085056 O.3       1 <1>        -0.358954 
     12 O          -5.821104   -2.634713    4.377610 O.3       1 <1>        -0.359667 
     13 C          -0.550602    0.782422    0.574055 C.ar      1 <1>         0.011004 
     14 C          -1.318956    2.045814    0.647336 C.ar      1 <1>        -0.019670 
     15 C          -0.702170    3.259616    0.345054 C.ar      1 <1>         0.103110 
     16 C           0.726148    3.286422   -0.063238 C.ar      1 <1>         0.105717 
     17 C           1.469238    2.088676   -0.150903 C.ar      1 <1>        -0.010767 
     18 C           0.811993    0.819266    0.249618 C.ar      1 <1>        -0.045945 
     19 C           2.923910    2.080890   -0.662427 C.3       1 <1>        -0.006707 
     20 C           3.237058    0.973728   -1.650971 C.2       1 <1>        -0.080897 
     21 C           4.133950    1.038770   -2.652705 C.2       1 <1>        -0.079307 
     22 O          -1.317434   -3.914753   -0.204456 O.2       1 <1>        -0.284262 
     23 O           1.311732    4.516355   -0.365773 O.3       1 <1>        -0.357037 
     24 O          -1.438657    4.441978    0.422173 O.3       1 <1>        -0.357254 
     25 C           5.008288    2.244156   -2.926249 C.3       1 <1>        -0.044040 
     26 C           4.336335   -0.125354   -3.601256 C.3       1 <1>        -0.044040 
     27 O          -0.139912   -1.535178   -0.924306 O.3       1 <1>        -0.342026 
     28 C          -0.723872   -0.913477   -2.088927 C.3       1 <1>         0.043278 
     29 H          -5.199186   -4.782922    3.013380 H         1 <1>         0.066923 
     30 H          -4.103005   -0.593121    3.620026 H         1 <1>         0.066947 
     31 H          -3.877359   -5.950617    1.323803 H         1 <1>         0.217342 
     32 H          -5.988800   -1.749163    4.681808 H         1 <1>         0.217316 
     33 H          -2.364004    2.034466    0.938290 H         1 <1>         0.065076 
     34 H           1.387324   -0.097390    0.297214 H         1 <1>         0.062787 
     35 H           3.594990    2.002024    0.205467 H         1 <1>         0.035641 
     36 H           3.101413    3.039033   -1.165108 H         1 <1>         0.035641 
     37 H           2.698871    0.034715   -1.551871 H         1 <1>         0.057472 
     38 H           2.041194    4.697382    0.217786 H         1 <1>         0.217432 
     39 H          -0.943679    5.181045    0.083418 H         1 <1>         0.217422 
     40 H           5.993643    1.919991   -3.293673 H         1 <1>         0.027427 
     41 H           5.195302    2.862458   -2.037362 H         1 <1>         0.027427 
     42 H           4.533712    2.862183   -3.702939 H         1 <1>         0.027427 
     43 H           3.654013   -0.969527   -3.418654 H         1 <1>         0.027427 
     44 H           5.367734   -0.498301   -3.508414 H         1 <1>         0.027427 
     45 H           4.180593    0.217387   -4.634447 H         1 <1>         0.027427 
     46 H          -1.564356   -1.522461   -2.461146 H         1 <1>         0.052873 
     47 H           0.047686   -0.872544   -2.872379 H         1 <1>         0.052873 
     48 H          -1.079951    0.113305   -1.910963 H         1 <1>         0.052873 
@<TRIPOS>BOND
     1    1    2 1    
     2    1    6 2    
     3    1   10 1    
     4    2    3 2    
     5    2    7 1    
     6    3    4 1    
     7    3   11 1    
     8    4    5 2    
     9    4   29 1    
    10    5    6 1    
    11    5   12 1    
    12    6   30 1    
    13    7    8 1    
    14    7   22 2    
    15    8    9 2    
    16    8   27 1    
    17    9   10 1    
    18    9   13 1    
    19   11   31 1    
    20   12   32 1    
    21   13   14 1    
    22   13   18 2    
    23   14   15 2    
    24   14   33 1    
    25   15   16 1    
    26   15   24 1    
    27   16   17 2    
    28   16   23 1    
    29   17   18 1    
    30   17   19 1    
    31   18   34 1    
    32   19   20 1    
    33   19   35 1    
    34   19   36 1    
    35   20   21 2    
    36   20   37 1    
    37   21   25 1    
    38   21   26 1    
    39   23   38 1    
    40   24   39 1    
    41   25   40 1    
    42   25   41 1    
    43   25   42 1    
    44   26   43 1    
    45   26   44 1    
    46   26   45 1    
    47   27   28 1    
    48   28   46 1    
    49   28   47 1    
    50   28   48 1    
@<TRIPOS>SUBSTRUCTURE
     1 ****        1 TEMP              0 ****  ****    0 ROOT 
@<TRIPOS>NORMAL
@<TRIPOS>FF_PBC
FORCE_FIELD_SETUP_FEATURE Force Field Setup information
v1.0  0 0.000000 0.000000 0.000000 0.000000 0.000000 0.000000 NONE 0 0 0 0 1 0 0 0 0 0 0 0 0
