@<TRIPOS>MOLECULE
MOL000608
   29    29     1     1     0
SMALL
GASTEIGER


@<TRIPOS>ATOM
      1 C          -0.169308   -0.479662    0.269752 C.3       1 <1>         0.072095 
      2 C          -0.695752   -1.956315    0.163096 C.3       1 <1>        -0.017487 
      3 C          -1.067482    0.507482   -0.531646 C.3       1 <1>        -0.019795 
      4 C           1.278337   -0.365770   -0.295627 C.3       1 <1>        -0.005272 
      5 O          -0.168068   -0.140580    1.669328 O.3       1 <1>        -0.388005 
      6 C           0.252077   -2.964375    0.880464 C.3       1 <1>        -0.060049 
      7 C          -2.131685   -2.129811    0.744532 C.3       1 <1>        -0.060049 
      8 C          -0.567392    1.973689   -0.449890 C.3       1 <1>        -0.029388 
      9 C           1.738714    1.039722   -0.594036 C.2       1 <1>        -0.082313 
     10 C           0.920489    2.098333   -0.661407 C.2       1 <1>        -0.076348 
     11 C           1.431761    3.492700   -0.948657 C.3       1 <1>        -0.043785 
     12 H          -0.737127   -2.246732   -0.901061 H         1 <1>         0.032317 
     13 H          -2.101693    0.506578   -0.158459 H         1 <1>         0.029605 
     14 H          -1.076950    0.189711   -1.587249 H         1 <1>         0.029605 
     15 H           1.363764   -0.929427   -1.237734 H         1 <1>         0.033522 
     16 H           1.984037   -0.789690    0.435258 H         1 <1>         0.033522 
     17 H           0.218536    0.706625    1.858544 H         1 <1>         0.210183 
     18 H          -0.164526   -3.983143    0.852761 H         1 <1>         0.023322 
     19 H           1.238079   -3.015035    0.396551 H         1 <1>         0.023322 
     20 H           0.387718   -2.676399    1.934067 H         1 <1>         0.023322 
     21 H          -2.420991   -3.191916    0.761559 H         1 <1>         0.023322 
     22 H          -2.888379   -1.612362    0.138450 H         1 <1>         0.023322 
     23 H          -2.177342   -1.746121    1.774968 H         1 <1>         0.023322 
     24 H          -0.808441    2.412691    0.531168 H         1 <1>         0.031079 
     25 H          -1.099867    2.563626   -1.214212 H         1 <1>         0.031079 
     26 H           2.807589    1.175960   -0.766389 H         1 <1>         0.057245 
     27 H           2.528500    3.536032   -1.028822 H         1 <1>         0.027436 
     28 H           1.121071    4.170311   -0.139226 H         1 <1>         0.027436 
     29 H           1.004331    3.853877   -1.896085 H         1 <1>         0.027436 
@<TRIPOS>BOND
     1    1    2 1    
     2    1    3 1    
     3    1    4 1    
     4    1    5 1    
     5    2    6 1    
     6    2    7 1    
     7    2   12 1    
     8    3    8 1    
     9    3   13 1    
    10    3   14 1    
    11    4    9 1    
    12    4   15 1    
    13    4   16 1    
    14    5   17 1    
    15    6   18 1    
    16    6   19 1    
    17    6   20 1    
    18    7   21 1    
    19    7   22 1    
    20    7   23 1    
    21    8   10 1    
    22    8   24 1    
    23    8   25 1    
    24    9   10 2    
    25    9   26 1    
    26   10   11 1    
    27   11   27 1    
    28   11   28 1    
    29   11   29 1    
@<TRIPOS>SUBSTRUCTURE
     1 ****        1 TEMP              0 ****  ****    0 ROOT 
@<TRIPOS>NORMAL
@<TRIPOS>FF_PBC
FORCE_FIELD_SETUP_FEATURE Force Field Setup information
v1.0  0 0.000000 0.000000 0.000000 0.000000 0.000000 0.000000 NONE 0 0 0 0 1 0 0 0 0 0 0 0 0
