@<TRIPOS>MOLECULE
MOL012954
   99   101     1     1     0
SMALL
GASTEIGER


@<TRIPOS>ATOM
      1 C           3.062449    4.888324    1.458580 C.ar      1 <1>        -0.029191 
      2 C           3.264301    4.060460    0.246862 C.ar      1 <1>         0.077352 
      3 C           4.102680    3.036056    0.303736 C.ar      1 <1>        -0.022008 
      4 C           4.751012    2.639291    1.565706 C.ar      1 <1>         0.008563 
      5 C           4.600595    3.384332    2.685242 C.ar      1 <1>         0.083127 
      6 C           3.718969    4.581706    2.618237 C.ar      1 <1>        -0.028673 
      7 O           2.578967    4.378555   -0.923232 O.3       1 <1>        -0.339075 
      8 N           3.423093    0.249624    0.951007 N.am      1 <1>        -0.290407 
      9 C           2.033664    3.396449   -1.829476 C.3       1 <1>         0.093590 
     10 C           5.492943    1.325654    1.451000 C.2       1 <1>        -0.038153 
     11 C           4.794301    0.260846    1.022945 C.2       1 <1>        -0.003049 
     12 C           2.699806    0.883645    1.911233 C.2       1 <1>         0.237368 
     13 N           0.998561    1.592442   -2.661589 N.am      1 <1>        -0.287071 
     14 C           2.931145    2.938759   -2.998739 C.3       1 <1>        -0.007986 
     15 C           1.982585    1.950427   -3.697440 C.3       1 <1>         0.017990 
     16 C           0.466012    2.602252   -0.122753 C.2       1 <1>         0.236728 
     17 C           1.345318    2.102385   -1.281288 C.3       1 <1>         0.128660 
     18 N           0.342257    2.130471    1.168540 N.am      1 <1>        -0.302128 
     19 C          -0.051825    0.815782   -3.137878 C.2       1 <1>         0.220010 
     20 C           1.199568    1.232149    2.007467 C.3       1 <1>         0.102250 
     21 C           0.541671    0.117602    2.910938 C.3       1 <1>        -0.017135 
     22 C          -1.219458   -1.433909   -2.768695 C.3       1 <1>         0.018751 
     23 C          -1.331563    0.122408   -2.649538 C.3       1 <1>         0.045018 
     24 O           5.222018    2.999414    3.877962 O.3       1 <1>        -0.347323 
     25 O          -0.203407    3.588858   -0.374023 O.2       1 <1>        -0.273659 
     26 C          -2.499580   -2.170784   -2.392283 C.2       1 <1>         0.151287 
     27 C          -2.419204   -3.542456   -1.734492 C.3       1 <1>         0.071095 
     28 O           3.310862    1.123760    2.942261 O.2       1 <1>        -0.273437 
     29 O           0.008875    0.574915   -4.337849 O.2       1 <1>        -0.275258 
     30 N          -2.853060   -4.499275   -2.790217 N.3       1 <1>        -0.298773 
     31 C          -3.087614   -3.908505   -0.347355 C.3       1 <1>        -0.021633 
     32 C          -2.125326   -5.771603   -2.994937 C.3       1 <1>        -0.012375 
     33 C          -4.280505   -4.514327   -3.193660 C.3       1 <1>        -0.012375 
     34 C          -1.998913    0.550688   -1.322781 C.3       1 <1>        -0.032627 
     35 O          -3.570274   -1.674339   -2.715314 O.2       1 <1>        -0.295709 
     36 C           4.447022    3.077595    5.092396 C.3       1 <1>         0.043051 
     37 C          -0.772475    0.532467    3.645567 C.3       1 <1>        -0.060281 
     38 C           0.473937   -1.306237    2.262950 C.3       1 <1>        -0.051175 
     39 C           1.079984   -2.433670    3.151650 C.3       1 <1>        -0.064964 
     40 C          -1.076536    0.034088   -0.196577 C.3       1 <1>        -0.061719 
     41 C          -2.459834    2.039354   -1.430072 C.3       1 <1>        -0.052609 
     42 C          -3.127717    2.598086   -0.142312 C.3       1 <1>        -0.065014 
     43 C          -2.104066   -4.828450    0.451357 C.3       1 <1>        -0.060600 
     44 C          -3.567285   -2.764491    0.609627 C.3       1 <1>        -0.051492 
     45 C          -4.893852   -2.066727    0.227851 C.3       1 <1>        -0.064974 
     46 H           2.401433    5.745547    1.409604 H         1 <1>         0.064408 
     47 H           4.333723    2.457285   -0.572965 H         1 <1>         0.064999 
     48 H           3.582819    5.215864    3.481719 H         1 <1>         0.064426 
     49 H           2.969216   -0.370395    0.309542 H         1 <1>         0.154295 
     50 H           1.250813    4.003564   -2.314195 H         1 <1>         0.062512 
     51 H           6.567484    1.296740    1.638390 H         1 <1>         0.063669 
     52 H           5.358859   -0.619925    0.716054 H         1 <1>         0.078218 
     53 H           3.270291    3.768919   -3.637796 H         1 <1>         0.030620 
     54 H           3.807854    2.369415   -2.685637 H         1 <1>         0.030620 
     55 H           2.520154    1.062100   -4.076774 H         1 <1>         0.046547 
     56 H           1.490425    2.464028   -4.540837 H         1 <1>         0.046547 
     57 H           2.111444    1.445373   -0.864090 H         1 <1>         0.062297 
     58 H          -0.415028    2.565441    1.674231 H         1 <1>         0.149518 
     59 H           1.343853    2.034442    2.762931 H         1 <1>         0.059722 
     60 H           1.236671   -0.003338    3.762041 H         1 <1>         0.032060 
     61 H          -0.322296   -1.767409   -2.228383 H         1 <1>         0.034950 
     62 H          -1.053608   -1.704417   -3.823864 H         1 <1>         0.034950 
     63 H          -2.094989    0.399549   -3.402426 H         1 <1>         0.040087 
     64 H          -1.337838   -3.694561   -1.594647 H         1 <1>         0.054366 
     65 H          -3.976971   -4.532222   -0.535947 H         1 <1>         0.031727 
     66 H          -2.283637   -6.108832   -4.029225 H         1 <1>         0.039072 
     67 H          -1.041519   -5.667250   -2.838307 H         1 <1>         0.039072 
     68 H          -2.514834   -6.537676   -2.310227 H         1 <1>         0.039072 
     69 H          -4.729318   -5.492352   -2.967681 H         1 <1>         0.039072 
     70 H          -4.334900   -4.339180   -4.277565 H         1 <1>         0.039072 
     71 H          -4.879908   -3.744541   -2.687079 H         1 <1>         0.039072 
     72 H          -2.949588    0.025189   -1.149742 H         1 <1>         0.030537 
     73 H           5.033200    2.611935    5.897265 H         1 <1>         0.052870 
     74 H           4.256331    4.120302    5.379777 H         1 <1>         0.052870 
     75 H           3.488246    2.541613    5.010345 H         1 <1>         0.052870 
     76 H          -0.954285   -0.149513    4.489181 H         1 <1>         0.023311 
     77 H          -1.666243    0.495020    3.014543 H         1 <1>         0.023311 
     78 H          -0.687467    1.548172    4.054222 H         1 <1>         0.023311 
     79 H           1.037021   -1.325960    1.314737 H         1 <1>         0.026590 
     80 H          -0.580184   -1.565849    2.065839 H         1 <1>         0.026590 
     81 H           0.981022   -3.415232    2.656655 H         1 <1>         0.022987 
     82 H           2.154064   -2.244521    3.325726 H         1 <1>         0.022987 
     83 H           0.563593   -2.480548    4.125213 H         1 <1>         0.022987 
     84 H          -1.428018    0.383250    0.773438 H         1 <1>         0.023261 
     85 H          -0.030780    0.277761   -0.349377 H         1 <1>         0.023261 
     86 H          -1.066519   -1.058907   -0.182611 H         1 <1>         0.023261 
     87 H          -1.655930    2.671365   -1.824607 H         1 <1>         0.026541 
     88 H          -3.249032    2.101204   -2.202538 H         1 <1>         0.026541 
     89 H          -3.382320    3.661663   -0.279845 H         1 <1>         0.022986 
     90 H          -4.054109    2.049015    0.084686 H         1 <1>         0.022986 
     91 H          -2.476074    2.512138    0.730166 H         1 <1>         0.022986 
     92 H          -1.771104   -5.678494   -0.164497 H         1 <1>         0.023301 
     93 H          -2.568577   -5.246925    1.359289 H         1 <1>         0.023301 
     94 H          -1.214620   -4.250610    0.757158 H         1 <1>         0.023301 
     95 H          -2.785114   -2.018596    0.758986 H         1 <1>         0.026581 
     96 H          -3.761269   -3.196556    1.604353 H         1 <1>         0.026581 
     97 H          -4.846870   -1.616555   -0.763863 H         1 <1>         0.022987 
     98 H          -5.097486   -1.264479    0.951252 H         1 <1>         0.022987 
     99 H          -5.728495   -2.781452    0.250151 H         1 <1>         0.022987 
@<TRIPOS>BOND
     1    2    1 1    
     2    1    6 2    
     3    1   46 1    
     4    2    3 2    
     5    7    2 1    
     6    3    4 1    
     7    3   47 1    
     8    4    5 2    
     9    4   10 1    
    10    6    5 1    
    11    5   24 1    
    12    6   48 1    
    13    9    7 1    
    14   11    8 1    
    15    8   12 1    
    16    8   49 1    
    17    9   14 1    
    18   17    9 1    
    19    9   50 1    
    20   10   11 2    
    21   10   51 1    
    22   11   52 1    
    23   12   20 1    
    24   12   28 2    
    25   13   15 1    
    26   13   17 1    
    27   13   19 1    
    28   14   15 1    
    29   14   53 1    
    30   14   54 1    
    31   15   55 1    
    32   15   56 1    
    33   17   16 1    
    34   16   18 1    
    35   16   25 2    
    36   17   57 1    
    37   18   20 1    
    38   18   58 1    
    39   19   23 1    
    40   19   29 2    
    41   20   21 1    
    42   20   59 1    
    43   21   37 1    
    44   21   38 1    
    45   21   60 1    
    46   23   22 1    
    47   22   26 1    
    48   22   61 1    
    49   22   62 1    
    50   23   34 1    
    51   23   63 1    
    52   24   36 1    
    53   26   27 1    
    54   26   35 2    
    55   27   30 1    
    56   27   31 1    
    57   27   64 1    
    58   30   32 1    
    59   30   33 1    
    60   31   43 1    
    61   31   44 1    
    62   31   65 1    
    63   32   66 1    
    64   32   67 1    
    65   32   68 1    
    66   33   69 1    
    67   33   70 1    
    68   33   71 1    
    69   34   40 1    
    70   34   41 1    
    71   34   72 1    
    72   36   73 1    
    73   36   74 1    
    74   36   75 1    
    75   37   76 1    
    76   37   77 1    
    77   37   78 1    
    78   38   39 1    
    79   38   79 1    
    80   38   80 1    
    81   39   81 1    
    82   39   82 1    
    83   39   83 1    
    84   40   84 1    
    85   40   85 1    
    86   40   86 1    
    87   41   42 1    
    88   41   87 1    
    89   41   88 1    
    90   42   89 1    
    91   42   90 1    
    92   42   91 1    
    93   43   92 1    
    94   43   93 1    
    95   43   94 1    
    96   44   45 1    
    97   44   95 1    
    98   44   96 1    
    99   45   97 1    
   100   45   98 1    
   101   45   99 1    
@<TRIPOS>SUBSTRUCTURE
     1 ****       13 TEMP              0 ****  ****    0 ROOT 
@<TRIPOS>NORMAL
@<TRIPOS>FF_PBC
FORCE_FIELD_SETUP_FEATURE Force Field Setup information
v1.0  0 0.000000 0.000000 0.000000 0.000000 0.000000 0.000000 NONE 0 0 0 0 1 0 0 0 0 0 0 0 0
