@<TRIPOS>MOLECULE
MOL002301
   12    11     1     1     0
SMALL
GASTEIGER


@<TRIPOS>ATOM
      1 C          -0.978205    0.885473   -0.543923 C.3       1 <1>        -0.029581 
      2 C           0.239843   -0.070110   -0.531124 C.3       1 <1>         0.137023 
      3 O           1.383954    0.680259   -0.987474 O.3       1 <1>        -0.382052 
      4 C           0.442941   -0.641467    0.855140 C.2       1 <1>         0.288139 
      5 O           1.484391   -0.485289    1.474144 O.2       1 <1>        -0.262302 
      6 O          -0.586231   -1.332127    1.353240 O.3       1 <1>        -0.329332 
      7 H          -1.121194    1.295105   -1.555921 H         1 <1>         0.025946 
      8 H          -0.802992    1.719710    0.152795 H         1 <1>         0.025946 
      9 H          -1.896424    0.356636   -0.243904 H         1 <1>         0.025946 
     10 H           0.047369   -0.910837   -1.219794 H         1 <1>         0.069529 
     11 H           2.186257    0.166761   -0.978383 H         1 <1>         0.210447 
     12 H          -0.399811   -1.663915    2.225005 H         1 <1>         0.220292 
@<TRIPOS>BOND
     1    1    2 1    
     2    1    7 1    
     3    1    8 1    
     4    1    9 1    
     5    2    3 1    
     6    2    4 1    
     7    2   10 1    
     8    3   11 1    
     9    4    5 2    
    10    4    6 1    
    11    6   12 1    
@<TRIPOS>SUBSTRUCTURE
     1 ****        1 TEMP              0 ****  ****    0 ROOT 
@<TRIPOS>NORMAL
@<TRIPOS>FF_PBC
FORCE_FIELD_SETUP_FEATURE Force Field Setup information
v1.0  0 0.000000 0.000000 0.000000 0.000000 0.000000 0.000000 NONE 0 0 0 0 1 0 0 0 0 0 0 0 0
