@<TRIPOS>MOLECULE
MOL004385
   43    45     1     1     0
SMALL
GASTEIGER


@<TRIPOS>ATOM
      1 C          -6.240268    1.609075   -0.016250 C.ar      1 <1>         0.077519 
      2 C          -5.905129    3.053242   -0.012037 C.ar      1 <1>        -0.001303 
      3 C          -5.244542    0.694492    0.010587 C.ar      1 <1>        -0.000531 
      4 C          -3.828808    1.130093    0.039992 C.ar      1 <1>         0.098804 
      5 C          -3.532116    2.445834    0.041099 C.ar      1 <1>         0.081945 
      6 C          -4.612785    3.463494    0.016260 C.ar      1 <1>         0.088313 
      7 O          -2.819771    0.163352    0.061899 O.3       1 <1>        -0.307712 
      8 C          -1.507787    0.446929    0.036814 C.2       1 <1>         0.093873 
      9 C          -2.070564    2.817244    0.064120 C.2       1 <1>         0.193509 
     10 C          -1.092786    1.722724    0.039655 C.2       1 <1>         0.016919 
     11 C          -0.578292   -0.753424   -0.009345 C.ar      1 <1>         0.006017 
     12 C          -1.220672   -2.083594   -0.170340 C.ar      1 <1>        -0.049664 
     13 C          -0.483333   -3.200482   -0.253499 C.ar      1 <1>        -0.031026 
     14 C           0.785633   -0.700234    0.084481 C.ar      1 <1>        -0.046193 
     15 C           0.993003   -3.128253   -0.200104 C.ar      1 <1>         0.076073 
     16 C           1.622063   -1.927072   -0.036958 C.ar      1 <1>        -0.013299 
     17 O           1.728011   -4.306384   -0.327094 O.3       1 <1>        -0.359551 
     18 C           3.167104   -1.925776    0.001830 C.3       1 <1>        -0.006792 
     19 O          -7.585465    1.226768   -0.047058 O.3       1 <1>        -0.359667 
     20 O          -4.279204    4.821614    0.021610 O.3       1 <1>        -0.358955 
     21 O          -1.696692    3.977978    0.094740 O.2       1 <1>        -0.287017 
     22 C           3.983871   -0.649819   -0.061321 C.2       1 <1>        -0.080898 
     23 C           5.327574   -0.617735    0.018058 C.2       1 <1>        -0.079307 
     24 C           6.094240    0.689565   -0.017635 C.3       1 <1>        -0.044040 
     25 C           6.202807   -1.849224    0.147344 C.3       1 <1>        -0.044040 
     26 H          -6.717256    3.772466   -0.031675 H         1 <1>         0.066923 
     27 H          -5.463072   -0.367604    0.010081 H         1 <1>         0.066947 
     28 H          -0.052927    2.035795    0.019317 H         1 <1>         0.068219 
     29 H          -2.301867   -2.168115   -0.217538 H         1 <1>         0.062503 
     30 H          -0.966773   -4.166905   -0.361745 H         1 <1>         0.064348 
     31 H           1.272553    0.245380    0.248835 H         1 <1>         0.062784 
     32 H           2.170027   -4.529547    0.484024 H         1 <1>         0.217325 
     33 H           3.446010   -2.439928    0.935016 H         1 <1>         0.035640 
     34 H           3.488851   -2.531109   -0.860646 H         1 <1>         0.035640 
     35 H          -7.743016    0.288813   -0.079100 H         1 <1>         0.217316 
     36 H          -5.011911    5.427152    0.034708 H         1 <1>         0.217342 
     37 H           3.472860    0.301860   -0.181509 H         1 <1>         0.057472 
     38 H           5.450004    1.579676   -0.051425 H         1 <1>         0.027427 
     39 H           6.724805    0.768780    0.880167 H         1 <1>         0.027427 
     40 H           6.748778    0.711745   -0.900869 H         1 <1>         0.027427 
     41 H           5.664845   -2.805078    0.112245 H         1 <1>         0.027427 
     42 H           6.934661   -1.855193   -0.674787 H         1 <1>         0.027427 
     43 H           6.751338   -1.806495    1.100252 H         1 <1>         0.027427 
@<TRIPOS>BOND
     1    1    2 1    
     2    1    3 2    
     3    1   19 1    
     4    2    6 2    
     5    2   26 1    
     6    3    4 1    
     7    3   27 1    
     8    4    5 2    
     9    4    7 1    
    10    5    6 1    
    11    5    9 1    
    12    6   20 1    
    13    7    8 1    
    14    8   10 2    
    15    8   11 1    
    16    9   10 1    
    17    9   21 2    
    18   10   28 1    
    19   11   12 1    
    20   11   14 2    
    21   12   13 2    
    22   12   29 1    
    23   13   15 1    
    24   13   30 1    
    25   14   16 1    
    26   14   31 1    
    27   15   16 2    
    28   15   17 1    
    29   16   18 1    
    30   17   32 1    
    31   18   22 1    
    32   18   33 1    
    33   18   34 1    
    34   19   35 1    
    35   20   36 1    
    36   22   23 2    
    37   22   37 1    
    38   23   24 1    
    39   23   25 1    
    40   24   38 1    
    41   24   39 1    
    42   24   40 1    
    43   25   41 1    
    44   25   42 1    
    45   25   43 1    
@<TRIPOS>SUBSTRUCTURE
     1 ****        1 TEMP              0 ****  ****    0 ROOT 
@<TRIPOS>NORMAL
@<TRIPOS>FF_PBC
FORCE_FIELD_SETUP_FEATURE Force Field Setup information
v1.0  0 0.000000 0.000000 0.000000 0.000000 0.000000 0.000000 NONE 0 0 0 0 1 0 0 0 0 0 0 0 0
