@<TRIPOS>MOLECULE
MOL004857
   47    49     1     1     0
SMALL
GASTEIGER


@<TRIPOS>ATOM
      1 C           6.822054   -5.055907    0.376206 C.ar      1 <1>         0.082793 
      2 C           6.540482   -3.877564   -0.051167 C.ar      1 <1>         0.098077 
      3 C           5.111360   -3.492869   -0.103884 C.ar      1 <1>        -0.000278 
      4 C           4.166071   -4.321241    0.261815 C.ar      1 <1>         0.080983 
      5 C           4.504065   -5.718519    0.668281 C.ar      1 <1>         0.016576 
      6 C           5.769334   -6.028623    0.770708 C.ar      1 <1>         0.091795 
      7 C           8.271377   -5.439958    0.462516 C.2       1 <1>         0.200582 
      8 C           9.246955   -4.595688   -0.231883 C.2       1 <1>         0.052732 
      9 C           8.843637   -3.376057   -0.610789 C.2       1 <1>         0.058256 
     10 O           7.558388   -2.981552   -0.454771 O.3       1 <1>        -0.315268 
     11 C          10.677015   -6.317735   -0.835423 C.ar      1 <1>        -0.021502 
     12 C          11.974273   -7.028776   -0.973807 C.ar      1 <1>         0.103018 
     13 C          12.972147   -6.461838   -0.743382 C.ar      1 <1>         0.105439 
     14 C          12.906160   -5.038137   -0.305841 C.ar      1 <1>        -0.028580 
     15 C          11.884905   -4.485192   -0.193528 C.ar      1 <1>        -0.051251 
     16 C          10.615559   -5.212962   -0.456468 C.ar      1 <1>        -0.009702 
     17 O           8.606204   -6.429177    1.098761 O.2       1 <1>        -0.286389 
     18 O           6.141746   -7.293799    1.230015 O.3       1 <1>        -0.358673 
     19 C           3.508561   -6.861901    0.987151 C.3       1 <1>        -0.004339 
     20 O           2.842920   -3.878773    0.280417 O.3       1 <1>        -0.359385 
     21 O          11.960671   -8.362907   -1.375116 O.3       1 <1>        -0.357256 
     22 O          14.246942   -7.050784   -0.860864 O.3       1 <1>        -0.345349 
     23 C          14.537429   -8.455445   -0.694590 C.3       1 <1>         0.043135 
     24 C           2.003956   -6.707892    0.953341 C.2       1 <1>        -0.080815 
     25 C           1.158362   -7.752235    1.046993 C.2       1 <1>        -0.079306 
     26 C          -0.346728   -7.573793    1.022942 C.3       1 <1>        -0.044040 
     27 C           1.625237   -9.191070    1.187898 C.3       1 <1>        -0.044040 
     28 H           4.847639   -2.496384   -0.437911 H         1 <1>         0.066956 
     29 H           9.540218   -2.671823   -1.072931 H         1 <1>         0.089749 
     30 H           9.773916   -6.865989   -1.089519 H         1 <1>         0.065014 
     31 H          13.849230   -4.537310   -0.095025 H         1 <1>         0.064429 
     32 H          11.839070   -3.442557    0.110067 H         1 <1>         0.062445 
     33 H           6.967770   -7.263404    1.709350 H         1 <1>         0.217354 
     34 H           3.756925   -7.219760    1.998289 H         1 <1>         0.035721 
     35 H           3.754631   -7.656376    0.263520 H         1 <1>         0.035721 
     36 H           2.729036   -3.193983    0.932437 H         1 <1>         0.217328 
     37 H          11.127290   -8.788644   -1.207353 H         1 <1>         0.217422 
     38 H          15.632852   -8.561005   -0.699481 H         1 <1>         0.052871 
     39 H          14.144943   -8.832778    0.264198 H         1 <1>         0.052871 
     40 H          14.164275   -9.076127   -1.521835 H         1 <1>         0.052871 
     41 H           1.570465   -5.717427    0.859495 H         1 <1>         0.057473 
     42 H          -0.652914   -6.521903    0.903514 H         1 <1>         0.027427 
     43 H          -0.772327   -8.149056    0.190521 H         1 <1>         0.027427 
     44 H          -0.773266   -7.945868    1.964726 H         1 <1>         0.027427 
     45 H           2.634338   -9.310074    1.616527 H         1 <1>         0.027427 
     46 H           1.609996   -9.672982    0.198562 H         1 <1>         0.027427 
     47 H           0.940906   -9.739679    1.848307 H         1 <1>         0.027427 
@<TRIPOS>BOND
     1    1    2 2    
     2    1    6 1    
     3    7    1 1    
     4    2    3 1    
     5   10    2 1    
     6    3    4 2    
     7    3   28 1    
     8    5    4 1    
     9    4   20 1    
    10    6    5 2    
    11    5   19 1    
    12    6   18 1    
    13    8    7 1    
    14    7   17 2    
    15    8    9 2    
    16   16    8 1    
    17    9   10 1    
    18    9   29 1    
    19   11   12 1    
    20   11   16 2    
    21   11   30 1    
    22   12   13 2    
    23   12   21 1    
    24   13   14 1    
    25   13   22 1    
    26   14   15 2    
    27   14   31 1    
    28   15   16 1    
    29   15   32 1    
    30   18   33 1    
    31   19   24 1    
    32   19   34 1    
    33   19   35 1    
    34   20   36 1    
    35   21   37 1    
    36   22   23 1    
    37   23   38 1    
    38   23   39 1    
    39   23   40 1    
    40   24   25 2    
    41   24   41 1    
    42   25   26 1    
    43   25   27 1    
    44   26   42 1    
    45   26   43 1    
    46   26   44 1    
    47   27   45 1    
    48   27   46 1    
    49   27   47 1    
@<TRIPOS>SUBSTRUCTURE
     1 ****       11 TEMP              0 ****  ****    0 ROOT 
@<TRIPOS>NORMAL
@<TRIPOS>FF_PBC
FORCE_FIELD_SETUP_FEATURE Force Field Setup information
v1.0  0 0.000000 0.000000 0.000000 0.000000 0.000000 0.000000 NONE 0 0 0 0 1 0 0 0 0 0 0 0 0
