@<TRIPOS>MOLECULE
MOL010822
   40    42     1     1     0
SMALL
GASTEIGER


@<TRIPOS>ATOM
      1 C          -0.821409   -0.064031   -0.560598 C.3       1 <1>        -0.020138 
      2 C           0.489036   -0.873675   -0.307700 C.3       1 <1>        -0.029321 
      3 C          -0.366689    1.416399   -0.529689 C.3       1 <1>        -0.039651 
      4 C          -1.875600   -0.220257    0.578203 C.3       1 <1>        -0.016791 
      5 C          -1.335161   -0.518879   -1.960270 C.3       1 <1>        -0.037830 
      6 C           1.514611    0.129363    0.326362 C.3       1 <1>        -0.024958 
      7 C           0.852314   -1.547026   -1.669586 C.3       1 <1>        -0.048932 
      8 C           0.614161    1.358398    0.662069 C.3       1 <1>        -0.011811 
      9 C          -1.557422    0.601222    1.866559 C.3       1 <1>         0.076805 
     10 C          -0.023390   -0.832429   -2.725870 C.3       1 <1>        -0.049661 
     11 C          -2.247116   -1.781734   -1.915736 C.3       1 <1>        -0.061900 
     12 C           2.190146   -0.492493    1.588245 C.3       1 <1>        -0.058998 
     13 C           2.675650    0.582070   -0.619942 C.3       1 <1>        -0.058998 
     14 C          -0.155612    1.171468    1.952753 C.2       1 <1>        -0.044906 
     15 O          -2.466230    1.720775    1.915017 O.3       1 <1>        -0.387483 
     16 C           0.373392    1.519486    3.134990 C.2       1 <1>        -0.096744 
     17 H           0.282234   -1.683802    0.411863 H         1 <1>         0.031157 
     18 H           1.187887    2.297214    0.735574 H         1 <1>         0.035179 
     19 H          -1.195939    2.124090   -0.370186 H         1 <1>         0.027667 
     20 H           0.149560    1.732986   -1.445386 H         1 <1>         0.027667 
     21 H          -2.844596    0.138758    0.195767 H         1 <1>         0.029881 
     22 H          -2.006300   -1.285267    0.827249 H         1 <1>         0.029881 
     23 H          -1.897874    0.288974   -2.458829 H         1 <1>         0.030356 
     24 H           0.555430   -2.608905   -1.648803 H         1 <1>         0.026837 
     25 H           1.914422   -1.542226   -1.946698 H         1 <1>         0.026837 
     26 H          -1.755991   -0.034244    2.748812 H         1 <1>         0.064032 
     27 H           0.467717    0.094714   -3.057121 H         1 <1>         0.026811 
     28 H          -0.184990   -1.452604   -3.622000 H         1 <1>         0.026811 
     29 H          -2.443555   -2.139809   -2.938305 H         1 <1>         0.023259 
     30 H          -3.222146   -1.551667   -1.461737 H         1 <1>         0.023259 
     31 H          -1.789789   -2.602431   -1.344646 H         1 <1>         0.023259 
     32 H           2.856775    0.238318    2.069913 H         1 <1>         0.023525 
     33 H           2.790695   -1.368367    1.297454 H         1 <1>         0.023525 
     34 H           1.455564   -0.834428    2.332478 H         1 <1>         0.023525 
     35 H           3.234662    1.411606   -0.158054 H         1 <1>         0.023525 
     36 H           2.321648    0.927439   -1.600493 H         1 <1>         0.023525 
     37 H           3.401150   -0.229816   -0.784057 H         1 <1>         0.023525 
     38 H          -2.367982    2.260105    2.693331 H         1 <1>         0.210218 
     39 H          -0.180134    1.390325    4.063965 H         1 <1>         0.053529 
     40 H           1.373267    1.945245    3.204522 H         1 <1>         0.053529 
@<TRIPOS>BOND
     1    1    2 1    
     2    1    3 1    
     3    1    4 1    
     4    1    5 1    
     5    2    6 1    
     6    2    7 1    
     7    2   17 1    
     8    3    8 1    
     9    3   19 1    
    10    3   20 1    
    11    4    9 1    
    12    4   21 1    
    13    4   22 1    
    14    5   10 1    
    15    5   11 1    
    16    5   23 1    
    17    6    8 1    
    18    6   12 1    
    19    6   13 1    
    20    7   10 1    
    21    7   24 1    
    22    7   25 1    
    23    8   14 1    
    24    8   18 1    
    25    9   14 1    
    26    9   15 1    
    27    9   26 1    
    28   10   27 1    
    29   10   28 1    
    30   11   29 1    
    31   11   30 1    
    32   11   31 1    
    33   12   32 1    
    34   12   33 1    
    35   12   34 1    
    36   13   35 1    
    37   13   36 1    
    38   13   37 1    
    39   14   16 2    
    40   15   38 1    
    41   16   39 1    
    42   16   40 1    
@<TRIPOS>SUBSTRUCTURE
     1 ****        1 TEMP              0 ****  ****    0 ROOT 
@<TRIPOS>NORMAL
@<TRIPOS>FF_PBC
FORCE_FIELD_SETUP_FEATURE Force Field Setup information
v1.0  0 0.000000 0.000000 0.000000 0.000000 0.000000 0.000000 NONE 0 0 0 0 1 0 0 0 0 0 0 0 0
