@<TRIPOS>MOLECULE
MOL004961
   38    40     1     1     0
SMALL
GASTEIGER


@<TRIPOS>ATOM
      1 C          -0.155337    0.149845   -0.235149 C.2       1 <1>         0.123932 
      2 C           0.337013    1.395996   -0.142193 C.2       1 <1>         0.154520 
      3 O           1.553725    1.609637    0.372382 O.3       1 <1>        -0.342026 
      4 C          -0.467092    2.546506   -0.587273 C.2       1 <1>         0.223296 
      5 O           0.000345    3.673236   -0.601923 O.2       1 <1>        -0.284262 
      6 C          -1.890531    2.281472   -1.004635 C.ar      1 <1>         0.084561 
      7 C          -2.846890    3.360270   -1.355272 C.ar      1 <1>         0.088401 
      8 O          -2.429920    4.692370   -1.321141 O.3       1 <1>        -0.358954 
      9 C          -4.163746    3.018137   -1.712714 C.ar      1 <1>        -0.001302 
     10 C          -4.590876    1.600005   -1.750769 C.ar      1 <1>         0.077519 
     11 O          -5.906457    1.295324   -2.108606 O.3       1 <1>        -0.359667 
     12 C          -3.670674    0.589647   -1.429674 C.ar      1 <1>        -0.000529 
     13 C          -2.286827    0.940486   -1.039676 C.ar      1 <1>         0.099001 
     14 O          -1.394423   -0.079702   -0.703660 O.3       1 <1>        -0.305122 
     15 C           0.614777   -1.083631    0.192931 C.ar      1 <1>         0.010745 
     16 C          -0.186729   -2.240937    0.666486 C.ar      1 <1>        -0.049435 
     17 C           0.435842   -3.419248    1.090074 C.ar      1 <1>        -0.028761 
     18 C           1.909783   -3.521477    1.084724 C.ar      1 <1>         0.102473 
     19 C           2.680167   -2.438296    0.640243 C.ar      1 <1>         0.106041 
     20 C           2.017603   -1.199477    0.158653 C.ar      1 <1>        -0.019439 
     21 O           2.514683   -4.699972    1.525810 O.3       1 <1>        -0.357268 
     22 O           4.071730   -2.551082    0.660401 O.3       1 <1>        -0.345330 
     23 C           4.779282   -1.574936    1.442365 C.3       1 <1>         0.043136 
     24 C           1.518067    1.706170    1.808540 C.3       1 <1>         0.043278 
     25 H          -3.065590    5.320000   -1.646113 H         1 <1>         0.217342 
     26 H          -4.887412    3.784150   -1.965893 H         1 <1>         0.066923 
     27 H          -6.135411    0.375196   -2.033891 H         1 <1>         0.217316 
     28 H          -3.955427   -0.456620   -1.458705 H         1 <1>         0.066947 
     29 H          -1.270910   -2.177744    0.684925 H         1 <1>         0.062506 
     30 H          -0.156217   -4.265250    1.426848 H         1 <1>         0.064422 
     31 H           2.631862   -0.398152   -0.227076 H         1 <1>         0.065083 
     32 H           3.462493   -4.651457    1.454441 H         1 <1>         0.217422 
     33 H           5.835102   -1.882107    1.497718 H         1 <1>         0.052871 
     34 H           4.373583   -1.525639    2.465381 H         1 <1>         0.052871 
     35 H           4.733336   -0.577766    0.979800 H         1 <1>         0.052871 
     36 H           2.545721    1.901144    2.149126 H         1 <1>         0.052873 
     37 H           1.164443    0.773347    2.277035 H         1 <1>         0.052873 
     38 H           0.877475    2.540622    2.136713 H         1 <1>         0.052873 
@<TRIPOS>BOND
     1    1    2 2    
     2    1   14 1    
     3    1   15 1    
     4    2    3 1    
     5    2    4 1    
     6    3   24 1    
     7    4    5 2    
     8    4    6 1    
     9    6    7 1    
    10    6   13 2    
    11    7    8 1    
    12    7    9 2    
    13    8   25 1    
    14    9   10 1    
    15    9   26 1    
    16   10   11 1    
    17   10   12 2    
    18   11   27 1    
    19   12   13 1    
    20   12   28 1    
    21   13   14 1    
    22   15   16 1    
    23   15   20 2    
    24   16   17 2    
    25   16   29 1    
    26   17   18 1    
    27   17   30 1    
    28   18   19 2    
    29   18   21 1    
    30   19   20 1    
    31   19   22 1    
    32   20   31 1    
    33   21   32 1    
    34   22   23 1    
    35   23   33 1    
    36   23   34 1    
    37   23   35 1    
    38   24   36 1    
    39   24   37 1    
    40   24   38 1    
@<TRIPOS>SUBSTRUCTURE
     1 ****        1 TEMP              0 ****  ****    0 ROOT 
@<TRIPOS>NORMAL
@<TRIPOS>FF_PBC
FORCE_FIELD_SETUP_FEATURE Force Field Setup information
v1.0  0 0.000000 0.000000 0.000000 0.000000 0.000000 0.000000 NONE 0 0 0 0 1 0 0 0 0 0 0 0 0
