@<TRIPOS>MOLECULE
MOL002177
   29    29     1     1     0
SMALL
GASTEIGER


@<TRIPOS>ATOM
      1 C          -0.478106    1.441598    0.692577 C.3       1 <1>         0.076642 
      2 C           0.994339    1.555136    0.386935 C.2       1 <1>        -0.056646 
      3 C           1.845620    0.519188    0.435982 C.2       1 <1>        -0.074111 
      4 C           1.402883   -0.876681    0.813795 C.3       1 <1>        -0.031575 
      5 C          -0.048429   -0.913386    1.358999 C.3       1 <1>        -0.043650 
      6 C          -0.982500   -0.019708    0.493351 C.3       1 <1>        -0.008750 
      7 O          -0.631622    1.877814    2.056009 O.3       1 <1>        -0.387477 
      8 C          -1.063120   -0.452855   -1.014446 C.3       1 <1>        -0.041238 
      9 C          -2.106439    0.382407   -1.818696 C.3       1 <1>        -0.062323 
     10 C          -1.435507   -1.958810   -1.164294 C.3       1 <1>        -0.062323 
     11 C           3.314580    0.675774    0.112239 C.3       1 <1>        -0.043707 
     12 H          -1.034530    2.151503    0.062209 H         1 <1>         0.064039 
     13 H           1.361424    2.547873    0.125289 H         1 <1>         0.059702 
     14 H           2.079207   -1.285618    1.582177 H         1 <1>         0.031000 
     15 H           1.492895   -1.514909   -0.078210 H         1 <1>         0.031000 
     16 H          -0.038594   -0.522229    2.390216 H         1 <1>         0.027194 
     17 H          -0.412211   -1.949928    1.430301 H         1 <1>         0.027194 
     18 H          -2.001355   -0.093438    0.909253 H         1 <1>         0.033138 
     19 H          -1.535435    1.875657    2.355125 H         1 <1>         0.210219 
     20 H          -0.085181   -0.295359   -1.499231 H         1 <1>         0.029904 
     21 H          -1.805271    1.432437   -1.934801 H         1 <1>         0.023243 
     22 H          -2.224110   -0.016997   -2.838029 H         1 <1>         0.023243 
     23 H          -3.088552    0.347869   -1.322931 H         1 <1>         0.023243 
     24 H          -0.646429   -2.620212   -0.780550 H         1 <1>         0.023243 
     25 H          -1.578006   -2.226203   -2.222752 H         1 <1>         0.023243 
     26 H          -2.371095   -2.172992   -0.625399 H         1 <1>         0.023243 
     27 H           3.575918    1.699040   -0.197242 H         1 <1>         0.027437 
     28 H           3.915488    0.421545    0.998210 H         1 <1>         0.027437 
     29 H           3.583740   -0.008616   -0.706288 H         1 <1>         0.027437 
@<TRIPOS>BOND
     1    1    2 1    
     2    1    6 1    
     3    1    7 1    
     4    1   12 1    
     5    2    3 2    
     6    2   13 1    
     7    3    4 1    
     8    3   11 1    
     9    4    5 1    
    10    4   14 1    
    11    4   15 1    
    12    5    6 1    
    13    5   16 1    
    14    5   17 1    
    15    6    8 1    
    16    6   18 1    
    17    7   19 1    
    18    8    9 1    
    19    8   10 1    
    20    8   20 1    
    21    9   21 1    
    22    9   22 1    
    23    9   23 1    
    24   10   24 1    
    25   10   25 1    
    26   10   26 1    
    27   11   27 1    
    28   11   28 1    
    29   11   29 1    
@<TRIPOS>SUBSTRUCTURE
     1 ****        1 TEMP              0 ****  ****    0 ROOT 
@<TRIPOS>NORMAL
@<TRIPOS>FF_PBC
FORCE_FIELD_SETUP_FEATURE Force Field Setup information
v1.0  0 0.000000 0.000000 0.000000 0.000000 0.000000 0.000000 NONE 0 0 0 0 1 0 0 0 0 0 0 0 0
