@<TRIPOS>MOLECULE
MOL012644
   39    40     1     1     0
SMALL
GASTEIGER


@<TRIPOS>ATOM
      1 C           2.321126    0.586039   -1.027483 C.3       1 <1>        -0.029054 
      2 C           3.364205    1.388425   -0.194376 C.3       1 <1>        -0.045500 
      3 C           3.935283    0.773709    1.119062 C.3       1 <1>        -0.031719 
      4 C           5.430533    0.998631    1.144889 C.2       1 <1>        -0.076511 
      5 C           6.310860    0.065199    0.748585 C.2       1 <1>        -0.084727 
      6 C           5.974838   -1.328873    0.251929 C.3       1 <1>        -0.030830 
      7 C           5.016174   -1.437032   -0.981405 C.3       1 <1>        -0.028282 
      8 C           3.549135   -1.754664   -0.725604 C.2       1 <1>        -0.072939 
      9 C           2.533612   -0.892221   -1.465743 C.3       1 <1>        -0.016326 
     10 C           0.996307   -1.088164   -1.265881 C.3       1 <1>        -0.040797 
     11 C           0.915923    0.239144   -0.463782 C.3       1 <1>        -0.030957 
     12 C           3.223761   -2.779854    0.077560 C.2       1 <1>        -0.099165 
     13 C          -0.213897    1.208692   -0.914735 C.3       1 <1>        -0.059523 
     14 C           0.832866   -0.027050    1.064383 C.3       1 <1>        -0.059523 
     15 C           5.875941    2.361554    1.631849 C.3       1 <1>        -0.043787 
     16 H           2.166857    1.173071   -1.953128 H         1 <1>         0.031176 
     17 H           2.788191   -0.974060   -2.537307 H         1 <1>         0.034853 
     18 H           4.197038    1.585022   -0.890096 H         1 <1>         0.027130 
     19 H           2.919084    2.369704    0.040973 H         1 <1>         0.027130 
     20 H           3.743436   -0.294621    1.219987 H         1 <1>         0.030998 
     21 H           3.477399    1.243837    2.004025 H         1 <1>         0.030998 
     22 H           7.371457    0.320832    0.792748 H         1 <1>         0.057163 
     23 H           5.627648   -1.907277    1.118640 H         1 <1>         0.031044 
     24 H           6.935645   -1.781358   -0.049948 H         1 <1>         0.031044 
     25 H           5.138294   -0.529909   -1.591467 H         1 <1>         0.031295 
     26 H           5.345680   -2.278044   -1.614454 H         1 <1>         0.031295 
     27 H           0.464010   -1.001912   -2.228147 H         1 <1>         0.027630 
     28 H           0.617681   -1.970509   -0.736082 H         1 <1>         0.027630 
     29 H           2.213180   -3.089519    0.320552 H         1 <1>         0.053449 
     30 H           3.986042   -3.400069    0.544394 H         1 <1>         0.053449 
     31 H          -0.084193    2.178172   -0.410375 H         1 <1>         0.023508 
     32 H          -1.196115    0.794548   -0.641281 H         1 <1>         0.023508 
     33 H          -0.208520    1.378528   -2.002118 H         1 <1>         0.023508 
     34 H           1.523714   -0.812675    1.393953 H         1 <1>         0.023508 
     35 H          -0.183129   -0.361679    1.322391 H         1 <1>         0.023508 
     36 H           1.040101    0.899538    1.618743 H         1 <1>         0.023508 
     37 H           5.394768    3.144177    1.026560 H         1 <1>         0.027436 
     38 H           6.964914    2.507429    1.570809 H         1 <1>         0.027436 
     39 H           5.573747    2.492637    2.681679 H         1 <1>         0.027436 
@<TRIPOS>BOND
     1    1    2 1    
     2    1    9 1    
     3    1   11 1    
     4    1   16 1    
     5    2    3 1    
     6    2   18 1    
     7    2   19 1    
     8    3    4 1    
     9    3   20 1    
    10    3   21 1    
    11    4    5 2    
    12    4   15 1    
    13    5    6 1    
    14    5   22 1    
    15    6    7 1    
    16    6   23 1    
    17    6   24 1    
    18    7    8 1    
    19    7   25 1    
    20    7   26 1    
    21    8    9 1    
    22    8   12 2    
    23    9   10 1    
    24    9   17 1    
    25   10   11 1    
    26   10   27 1    
    27   10   28 1    
    28   11   13 1    
    29   11   14 1    
    30   12   29 1    
    31   12   30 1    
    32   13   31 1    
    33   13   32 1    
    34   13   33 1    
    35   14   34 1    
    36   14   35 1    
    37   14   36 1    
    38   15   37 1    
    39   15   38 1    
    40   15   39 1    
@<TRIPOS>SUBSTRUCTURE
     1 ****        1 TEMP              0 ****  ****    0 ROOT 
@<TRIPOS>NORMAL
@<TRIPOS>FF_PBC
FORCE_FIELD_SETUP_FEATURE Force Field Setup information
v1.0  0 0.000000 0.000000 0.000000 0.000000 0.000000 0.000000 NONE 0 0 0 0 1 0 0 0 0 0 0 0 0
