@<TRIPOS>MOLECULE
MOL001566
   39    41     1     1     0
SMALL
GASTEIGER


@<TRIPOS>ATOM
      1 C           1.283069   -0.316924    0.112347 C.3       1 <1>        -0.022953 
      2 C          -0.170952   -0.415223    0.668553 C.3       1 <1>        -0.004917 
      3 C           2.085430    0.990646    0.279156 C.3       1 <1>        -0.031186 
      4 C           1.630073    0.541412   -1.139533 C.3       1 <1>        -0.027866 
      5 C          -0.919885    0.905027    0.703412 C.2       1 <1>        -0.066995 
      6 C          -0.951874   -1.444292   -0.225974 C.3       1 <1>        -0.034224 
      7 C          -0.063753   -0.870332    2.156396 C.3       1 <1>        -0.055317 
      8 C           1.388542    2.062810    1.152895 C.3       1 <1>        -0.045709 
      9 C           2.794159    0.002366   -2.015822 C.3       1 <1>        -0.059262 
     10 C           0.660764    1.517009   -1.863571 C.3       1 <1>        -0.059262 
     11 C          -0.160404    2.152446    1.093658 C.3       1 <1>        -0.030930 
     12 C          -2.220934    1.022292    0.396394 C.2       1 <1>        -0.084215 
     13 C          -2.459456   -1.495627    0.141799 C.3       1 <1>        -0.046217 
     14 C          -0.389517   -2.897843   -0.233292 C.3       1 <1>        -0.061610 
     15 C          -3.104820   -0.105935   -0.061222 C.3       1 <1>        -0.034222 
     16 H           1.932007   -1.187168    0.293796 H         1 <1>         0.031730 
     17 H           3.161822    0.850579    0.476186 H         1 <1>         0.030923 
     18 H          -0.885561   -1.082862   -1.266709 H         1 <1>         0.030662 
     19 H          -1.047727   -0.940142    2.639857 H         1 <1>         0.023829 
     20 H           0.525064   -0.149963    2.739282 H         1 <1>         0.023829 
     21 H           0.441366   -1.841501    2.249738 H         1 <1>         0.023829 
     22 H           1.832626    3.040951    0.904883 H         1 <1>         0.027122 
     23 H           1.691801    1.836438    2.187586 H         1 <1>         0.027122 
     24 H           3.353533    0.852947   -2.433600 H         1 <1>         0.023516 
     25 H           2.372564   -0.588628   -2.842618 H         1 <1>         0.023516 
     26 H           3.497524   -0.637614   -1.461714 H         1 <1>         0.023516 
     27 H           0.920136    2.558115   -1.623545 H         1 <1>         0.023516 
     28 H           0.781275    1.395815   -2.950286 H         1 <1>         0.023516 
     29 H          -0.398565    1.336974   -1.656696 H         1 <1>         0.023516 
     30 H          -0.538166    2.482228    2.075614 H         1 <1>         0.031025 
     31 H          -0.429393    2.943171    0.374397 H         1 <1>         0.031025 
     32 H          -2.696973    2.002768    0.456682 H         1 <1>         0.057180 
     33 H          -2.994316   -2.221312   -0.494047 H         1 <1>         0.027105 
     34 H          -2.589170   -1.825751    1.182561 H         1 <1>         0.027105 
     35 H          -0.950827   -3.509756   -0.956938 H         1 <1>         0.023268 
     36 H           0.665490   -2.935569   -0.536564 H         1 <1>         0.023268 
     37 H          -0.495660   -3.375302    0.751182 H         1 <1>         0.023268 
     38 H          -4.073877   -0.067764    0.463295 H         1 <1>         0.030749 
     39 H          -3.289555    0.059490   -1.135368 H         1 <1>         0.030749 
@<TRIPOS>BOND
     1    1    2 1    
     2    1    3 1    
     3    1    4 1    
     4    1   16 1    
     5    2    5 1    
     6    2    6 1    
     7    2    7 1    
     8    3    4 1    
     9    3    8 1    
    10    3   17 1    
    11    4    9 1    
    12    4   10 1    
    13    5   11 1    
    14    5   12 2    
    15    6   13 1    
    16    6   14 1    
    17    6   18 1    
    18    7   19 1    
    19    7   20 1    
    20    7   21 1    
    21    8   11 1    
    22    8   22 1    
    23    8   23 1    
    24    9   24 1    
    25    9   25 1    
    26    9   26 1    
    27   10   27 1    
    28   10   28 1    
    29   10   29 1    
    30   11   30 1    
    31   11   31 1    
    32   12   15 1    
    33   12   32 1    
    34   13   15 1    
    35   13   33 1    
    36   13   34 1    
    37   14   35 1    
    38   14   36 1    
    39   14   37 1    
    40   15   38 1    
    41   15   39 1    
@<TRIPOS>SUBSTRUCTURE
     1 ****        1 TEMP              0 ****  ****    0 ROOT 
@<TRIPOS>NORMAL
@<TRIPOS>FF_PBC
FORCE_FIELD_SETUP_FEATURE Force Field Setup information
v1.0  0 0.000000 0.000000 0.000000 0.000000 0.000000 0.000000 NONE 0 0 0 0 1 0 0 0 0 0 0 0 0
