@<TRIPOS>MOLECULE
MOL004927
   57    60     1     1     0
SMALL
GASTEIGER


@<TRIPOS>ATOM
      1 O          -2.133949    1.130256   -1.139967 O.3       1 <1>        -0.343144 
      2 O          -6.400769   -0.018440    0.976101 O.3       1 <1>        -0.334125 
      3 O           2.291818   -0.900910   -1.341798 O.3       1 <1>        -0.359186 
      4 O           5.516487    2.248291    0.667924 O.3       1 <1>        -0.359468 
      5 C           0.026072    0.500872   -0.239001 C.3       1 <1>         0.014543 
      6 C          -0.595684   -0.022342    1.080107 C.3       1 <1>        -0.016187 
      7 C          -2.123426   -0.071604    0.996306 C.ar      1 <1>        -0.016010 
      8 C          -0.839007    1.649208   -0.811524 C.3       1 <1>         0.061423 
      9 C          -2.818992    0.517139   -0.087907 C.ar      1 <1>         0.088953 
     10 C           1.481348    0.949294   -0.011580 C.ar      1 <1>        -0.011644 
     11 C          -4.299227    0.495000   -0.100937 C.ar      1 <1>         0.035007 
     12 C          -7.052396   -0.075317   -0.306726 C.3       1 <1>         0.088837 
     13 C          -5.007957   -0.082012    0.958681 C.ar      1 <1>         0.086883 
     14 C          -2.883723   -0.740081    2.082904 C.ar      1 <1>        -0.053632 
     15 C           2.551912    0.238570   -0.582393 C.ar      1 <1>         0.081990 
     16 C          -4.280563   -0.739287    2.067403 C.ar      1 <1>        -0.030640 
     17 C          -5.082287    1.104616   -1.238511 C.2       1 <1>        -0.050887 
     18 C           1.769205    2.142997    0.825419 C.ar      1 <1>        -0.053335 
     19 C          -6.389017    0.834424   -1.320305 C.2       1 <1>        -0.051917 
     20 C           3.953496    0.692901   -0.379061 C.ar      1 <1>         0.015986 
     21 C          -8.518437    0.370982   -0.077031 C.3       1 <1>        -0.031936 
     22 C          -6.992118   -1.538437   -0.816849 C.3       1 <1>        -0.031936 
     23 C           3.085402    2.558922    1.035807 C.ar      1 <1>        -0.031234 
     24 C           4.211682    1.815470    0.429289 C.ar      1 <1>         0.078500 
     25 C           5.106415   -0.062530   -1.053788 C.3       1 <1>        -0.004353 
     26 C           5.634834   -1.109579   -0.103441 C.2       1 <1>        -0.080815 
     27 C           6.899337   -1.561742   -0.102290 C.2       1 <1>        -0.079306 
     28 C           7.374872   -2.589498    0.902262 C.3       1 <1>        -0.044040 
     29 C           7.933425   -1.082010   -1.096636 C.3       1 <1>        -0.044040 
     30 H          -0.025285   -0.310179   -0.984522 H         1 <1>         0.037526 
     31 H          -0.362207    0.662157    1.909853 H         1 <1>         0.032055 
     32 H          -0.187643   -1.015999    1.326465 H         1 <1>         0.032055 
     33 H          -0.959804    2.474635   -0.094322 H         1 <1>         0.057101 
     34 H          -0.384321    2.049948   -1.731625 H         1 <1>         0.057101 
     35 H          -2.350150   -1.228715    2.891583 H         1 <1>         0.062188 
     36 H          -4.839214   -1.219668    2.862392 H         1 <1>         0.064357 
     37 H          -4.581754    1.738795   -1.970710 H         1 <1>         0.062283 
     38 H           0.965075    2.704950    1.287646 H         1 <1>         0.062197 
     39 H          -6.975687    1.257042   -2.137682 H         1 <1>         0.060053 
     40 H          -9.098324    0.291072   -1.009710 H         1 <1>         0.026052 
     41 H          -8.534932    1.417065    0.265681 H         1 <1>         0.026052 
     42 H          -8.994080   -0.258826    0.691625 H         1 <1>         0.026052 
     43 H          -5.945626   -1.853655   -0.956117 H         1 <1>         0.026052 
     44 H          -7.522855   -1.633075   -1.776676 H         1 <1>         0.026052 
     45 H          -7.464157   -2.210456   -0.081474 H         1 <1>         0.026052 
     46 H           3.294018    3.432246    1.645627 H         1 <1>         0.064339 
     47 H           4.759014   -0.553227   -1.975046 H         1 <1>         0.035721 
     48 H           5.876379    0.667953   -1.341908 H         1 <1>         0.035721 
     49 H           2.775368   -1.653820   -1.019240 H         1 <1>         0.217338 
     50 H           4.927552   -1.513694    0.621139 H         1 <1>         0.057473 
     51 H           6.081834    1.538387    0.953327 H         1 <1>         0.217326 
     52 H           6.624827   -2.815885    1.675934 H         1 <1>         0.027427 
     53 H           7.618050   -3.524529    0.374516 H         1 <1>         0.027427 
     54 H           8.282418   -2.219714    1.403888 H         1 <1>         0.027427 
     55 H           7.498829   -0.948875   -2.099359 H         1 <1>         0.027427 
     56 H           8.347150   -0.122709   -0.751303 H         1 <1>         0.027427 
     57 H           8.759273   -1.804280   -1.190545 H         1 <1>         0.027427 
@<TRIPOS>BOND
     1    8    1 1    
     2    1    9 1    
     3    2   12 1    
     4   13    2 1    
     5   15    3 1    
     6    3   49 1    
     7   24    4 1    
     8    4   51 1    
     9    5    6 1    
    10    5    8 1    
    11   10    5 1    
    12    5   30 1    
    13    6    7 1    
    14    6   31 1    
    15    6   32 1    
    16    7    9 2    
    17    7   14 1    
    18    8   33 1    
    19    8   34 1    
    20    9   11 1    
    21   15   10 2    
    22   10   18 1    
    23   11   13 2    
    24   11   17 1    
    25   19   12 1    
    26   12   21 1    
    27   12   22 1    
    28   16   13 1    
    29   14   16 2    
    30   14   35 1    
    31   20   15 1    
    32   16   36 1    
    33   17   19 2    
    34   17   37 1    
    35   18   23 2    
    36   18   38 1    
    37   19   39 1    
    38   20   24 2    
    39   20   25 1    
    40   21   40 1    
    41   21   41 1    
    42   21   42 1    
    43   22   43 1    
    44   22   44 1    
    45   22   45 1    
    46   23   24 1    
    47   23   46 1    
    48   25   26 1    
    49   25   47 1    
    50   25   48 1    
    51   26   27 2    
    52   26   50 1    
    53   27   28 1    
    54   27   29 1    
    55   28   52 1    
    56   28   53 1    
    57   28   54 1    
    58   29   55 1    
    59   29   56 1    
    60   29   57 1    
@<TRIPOS>SUBSTRUCTURE
     1 ****        5 TEMP              0 ****  ****    0 ROOT 
@<TRIPOS>NORMAL
@<TRIPOS>FF_PBC
FORCE_FIELD_SETUP_FEATURE Force Field Setup information
v1.0  0 0.000000 0.000000 0.000000 0.000000 0.000000 0.000000 NONE 0 0 0 0 1 0 0 0 0 0 0 0 0
