@<TRIPOS>MOLECULE
MOL002193
   26    26     1     1     0
SMALL
GASTEIGER


@<TRIPOS>ATOM
      1 C          -0.020371    1.601160   -0.863604 C.ar      1 <1>         0.105659 
      2 C           0.578281    0.282106   -0.552652 C.ar      1 <1>        -0.025976 
      3 C          -1.462762    1.757451   -0.769718 C.ar      1 <1>         0.102451 
      4 O           0.845224    2.641867   -1.235949 O.3       1 <1>        -0.345341 
      5 C          -0.218755   -0.816935   -0.169671 C.ar      1 <1>        -0.044769 
      6 C          -2.284992    0.587839   -0.363266 C.ar      1 <1>        -0.029141 
      7 O          -2.078315    2.981100   -1.053445 O.3       1 <1>        -0.357269 
      8 C           0.383550    3.968518   -1.532326 C.3       1 <1>         0.043136 
      9 C          -1.688298   -0.650310   -0.073535 C.ar      1 <1>        -0.055981 
     10 C           0.428331   -2.171244    0.146139 C.3       1 <1>        -0.027846 
     11 C           0.889021   -2.193463    1.626308 C.3       1 <1>        -0.051913 
     12 C           1.549152   -3.547962    1.992070 C.3       1 <1>        -0.064980 
     13 H           1.654658    0.172424   -0.623772 H         1 <1>         0.064684 
     14 H          -3.362938    0.683984   -0.286231 H         1 <1>         0.064412 
     15 H          -3.023530    2.970526   -0.956952 H         1 <1>         0.217422 
     16 H           1.264405    4.579340   -1.778250 H         1 <1>         0.052871 
     17 H          -0.288718    3.969236   -2.403650 H         1 <1>         0.052871 
     18 H          -0.114597    4.418312   -0.660029 H         1 <1>         0.052871 
     19 H          -2.308468   -1.489833    0.223840 H         1 <1>         0.062110 
     20 H           1.288940   -2.333708   -0.522432 H         1 <1>         0.031310 
     21 H          -0.296853   -2.980224   -0.035782 H         1 <1>         0.031310 
     22 H           0.017658   -2.022834    2.280785 H         1 <1>         0.026576 
     23 H           1.612493   -1.378306    1.796102 H         1 <1>         0.026576 
     24 H           1.869640   -3.540684    3.045963 H         1 <1>         0.022987 
     25 H           2.431709   -3.728238    1.358552 H         1 <1>         0.022987 
     26 H           0.835342   -4.374120    1.848426 H         1 <1>         0.022987 
@<TRIPOS>BOND
     1    1    2 1    
     2    1    3 2    
     3    1    4 1    
     4    2    5 2    
     5    2   13 1    
     6    3    6 1    
     7    3    7 1    
     8    4    8 1    
     9    5    9 1    
    10    5   10 1    
    11    6    9 2    
    12    6   14 1    
    13    7   15 1    
    14    8   16 1    
    15    8   17 1    
    16    8   18 1    
    17    9   19 1    
    18   10   11 1    
    19   10   20 1    
    20   10   21 1    
    21   11   12 1    
    22   11   22 1    
    23   11   23 1    
    24   12   24 1    
    25   12   25 1    
    26   12   26 1    
@<TRIPOS>SUBSTRUCTURE
     1 ****        1 TEMP              0 ****  ****    0 ROOT 
@<TRIPOS>NORMAL
@<TRIPOS>FF_PBC
FORCE_FIELD_SETUP_FEATURE Force Field Setup information
v1.0  0 0.000000 0.000000 0.000000 0.000000 0.000000 0.000000 NONE 0 0 0 0 1 0 0 0 0 0 0 0 0
