@<TRIPOS>MOLECULE
MOL001490
   66    66     1     1     0
SMALL
GASTEIGER


@<TRIPOS>ATOM
      1 O           8.552065   -0.469528   -0.212548 O.3       1 <1>        -0.311140 
      2 O           6.179306    3.232284   -2.261055 O.3       1 <1>        -0.311140 
      3 O           8.271376    1.578859    0.556492 O.2       1 <1>        -0.259203 
      4 O           7.224102    1.332953   -2.571231 O.2       1 <1>        -0.259203 
      5 C           8.853857   -2.722260   -1.219510 C.3       1 <1>        -0.017206 
      6 C           5.134086    5.447402   -1.778124 C.3       1 <1>        -0.017206 
      7 C           3.716389    6.088208   -1.620258 C.3       1 <1>        -0.048124 
      8 C           8.096418   -3.956826   -1.812309 C.3       1 <1>        -0.048124 
      9 C           5.768734    5.926039   -3.123409 C.3       1 <1>        -0.050960 
     10 C           9.824059   -3.235432   -0.105862 C.3       1 <1>        -0.050960 
     11 C           2.941124    5.626684   -0.352829 C.3       1 <1>        -0.052984 
     12 C           7.110185   -3.640484   -2.973716 C.3       1 <1>        -0.052984 
     13 C           7.862851   -1.637166   -0.704896 C.3       1 <1>         0.060195 
     14 C           5.046236    3.893800   -1.670877 C.3       1 <1>         0.060195 
     15 C           1.593418    6.387558   -0.213733 C.3       1 <1>        -0.055901 
     16 C           6.577807   -4.944080   -3.632087 C.3       1 <1>        -0.055901 
     17 C          10.792863   -2.169100    0.473540 C.3       1 <1>        -0.064954 
     18 C           7.323012    5.880577   -3.148517 C.3       1 <1>        -0.064954 
     19 C           5.546283   -4.635339   -4.749042 C.3       1 <1>        -0.065276 
     20 C           0.783513    5.890335    1.012401 C.3       1 <1>        -0.065276 
     21 C           6.329217    1.922210   -1.989804 C.2       1 <1>         0.294577 
     22 C           7.756010    0.544991    0.168799 C.2       1 <1>         0.294577 
     23 C           5.517493    1.126189   -0.988871 C.ar      1 <1>         0.059304 
     24 C           6.244819    0.474979    0.128197 C.ar      1 <1>         0.059304 
     25 C           5.541106   -0.210572    1.133747 C.ar      1 <1>        -0.048115 
     26 C           4.114077    0.970532   -1.076921 C.ar      1 <1>        -0.048115 
     27 C           4.065332   -0.321841    1.061932 C.ar      1 <1>        -0.060980 
     28 C           3.376414    0.238999   -0.018727 C.ar      1 <1>        -0.060980 
     29 H           9.460427   -2.268895   -2.022956 H         1 <1>         0.032297 
     30 H           5.769116    5.820203   -0.955712 H         1 <1>         0.032297 
     31 H           3.827207    7.184495   -1.568546 H         1 <1>         0.026864 
     32 H           3.113392    5.854346   -2.513516 H         1 <1>         0.026864 
     33 H           8.843809   -4.668264   -2.201753 H         1 <1>         0.026864 
     34 H           7.537860   -4.464716   -1.008717 H         1 <1>         0.026864 
     35 H           5.498930    6.980653   -3.301780 H         1 <1>         0.026601 
     36 H           5.356478    5.331432   -3.954590 H         1 <1>         0.026601 
     37 H          10.455088   -4.033012   -0.534047 H         1 <1>         0.026601 
     38 H           9.244368   -3.675791    0.721742 H         1 <1>         0.026601 
     39 H           6.236355   -3.087650   -2.595781 H         1 <1>         0.026529 
     40 H           7.617546   -3.025246   -3.734573 H         1 <1>         0.026529 
     41 H           2.712692    4.551163   -0.412082 H         1 <1>         0.026529 
     42 H           3.559111    5.803756    0.542425 H         1 <1>         0.026529 
     43 H           7.232299   -2.087521    0.076949 H         1 <1>         0.056866 
     44 H           7.233131   -1.310198   -1.546045 H         1 <1>         0.056866 
     45 H           4.161637    3.576483   -2.242108 H         1 <1>         0.056866 
     46 H           4.928206    3.629908   -0.606922 H         1 <1>         0.056866 
     47 H           7.416872   -5.512795   -4.067884 H         1 <1>         0.026265 
     48 H           6.096944   -5.573186   -2.864162 H         1 <1>         0.026265 
     49 H           1.788295    7.467831   -0.102714 H         1 <1>         0.026265 
     50 H           0.988552    6.238680   -1.124753 H         1 <1>         0.026265 
     51 H          11.282864   -1.607101   -0.336579 H         1 <1>         0.022987 
     52 H          10.267502   -1.465910    1.135434 H         1 <1>         0.022987 
     53 H          11.574178   -2.662393    1.074923 H         1 <1>         0.022987 
     54 H           7.690263    6.292458   -4.101995 H         1 <1>         0.022987 
     55 H           7.718868    4.860946   -3.052405 H         1 <1>         0.022987 
     56 H           7.736257    6.491360   -2.330387 H         1 <1>         0.022987 
     57 H           1.354892    6.051346    1.939886 H         1 <1>         0.022978 
     58 H           0.559305    4.816434    0.915049 H         1 <1>         0.022978 
     59 H           5.187697   -5.573581   -5.202372 H         1 <1>         0.022978 
     60 H           4.680674   -4.093678   -4.336364 H         1 <1>         0.022978 
     61 H           6.008912   -4.019054   -5.535833 H         1 <1>         0.022978 
     62 H          -0.168268    6.440940    1.086020 H         1 <1>         0.022978 
     63 H           6.077905   -0.664660    1.960106 H         1 <1>         0.062548 
     64 H           3.561196    1.379218   -1.913625 H         1 <1>         0.062548 
     65 H           3.522760   -0.842927    1.845101 H         1 <1>         0.061779 
     66 H           2.296447    0.146510   -0.081983 H         1 <1>         0.061779 
@<TRIPOS>BOND
     1    1   13 1    
     2   22    1 1    
     3    2   14 1    
     4   21    2 1    
     5   22    3 2    
     6   21    4 2    
     7    5    8 1    
     8    5   10 1    
     9   13    5 1    
    10    5   29 1    
    11    6    7 1    
    12    6    9 1    
    13   14    6 1    
    14    6   30 1    
    15    7   11 1    
    16    7   31 1    
    17    7   32 1    
    18    8   12 1    
    19    8   33 1    
    20    8   34 1    
    21    9   18 1    
    22    9   35 1    
    23    9   36 1    
    24   10   17 1    
    25   10   37 1    
    26   10   38 1    
    27   11   15 1    
    28   11   41 1    
    29   11   42 1    
    30   12   16 1    
    31   12   39 1    
    32   12   40 1    
    33   13   43 1    
    34   13   44 1    
    35   14   45 1    
    36   14   46 1    
    37   15   20 1    
    38   15   49 1    
    39   15   50 1    
    40   16   19 1    
    41   16   47 1    
    42   16   48 1    
    43   17   51 1    
    44   17   52 1    
    45   17   53 1    
    46   18   54 1    
    47   18   55 1    
    48   18   56 1    
    49   19   59 1    
    50   19   60 1    
    51   19   61 1    
    52   20   57 1    
    53   20   58 1    
    54   20   62 1    
    55   23   21 1    
    56   24   22 1    
    57   23   24 1    
    58   23   26 2    
    59   24   25 2    
    60   25   27 1    
    61   25   63 1    
    62   26   28 1    
    63   26   64 1    
    64   27   28 2    
    65   27   65 1    
    66   28   66 1    
@<TRIPOS>SUBSTRUCTURE
     1 ****        6 TEMP              0 ****  ****    0 ROOT 
@<TRIPOS>NORMAL
@<TRIPOS>FF_PBC
FORCE_FIELD_SETUP_FEATURE Force Field Setup information
v1.0  0 0.000000 0.000000 0.000000 0.000000 0.000000 0.000000 NONE 0 0 0 0 1 0 0 0 0 0 0 0 0
