@<TRIPOS>MOLECULE
MOL000937
   39    41     1     1     0
SMALL
GASTEIGER


@<TRIPOS>ATOM
      1 C           2.296310   -1.293169    0.841235 C.3       1 <1>        -0.030688 
      2 C           2.381030    0.017780    1.668662 C.3       1 <1>        -0.043038 
      3 C           1.711144    1.119420    0.800341 C.3       1 <1>        -0.021893 
      4 C           0.739899    0.275384    0.024690 C.2       1 <1>        -0.063326 
      5 C          -0.413547    0.942401   -0.666237 C.3       1 <1>        -0.010638 
      6 C          -1.795118    0.288562   -0.932173 C.3       1 <1>        -0.028285 
      7 C          -2.151353   -1.198029   -0.622209 C.3       1 <1>        -0.048617 
      8 C          -1.120654   -2.207776   -0.032290 C.3       1 <1>        -0.046469 
      9 C           0.313851   -2.145029   -0.624326 C.3       1 <1>        -0.022450 
     10 C           1.054965   -1.016300    0.041502 C.2       1 <1>        -0.066901 
     11 C          -1.626370    1.309002    0.225509 C.3       1 <1>        -0.024718 
     12 C           2.720453    1.794298   -0.163466 C.3       1 <1>        -0.058675 
     13 C           0.356116   -2.035810   -2.170835 C.3       1 <1>        -0.058693 
     14 C          -2.236832    2.716020   -0.013439 C.3       1 <1>        -0.058989 
     15 C          -1.654560    0.809440    1.694159 C.3       1 <1>        -0.058989 
     16 H           3.150436   -1.407938    0.155677 H         1 <1>         0.031033 
     17 H           2.217662   -2.179828    1.490962 H         1 <1>         0.031033 
     18 H           1.775378   -0.113995    2.582432 H         1 <1>         0.027391 
     19 H           3.410845    0.265184    1.971760 H         1 <1>         0.027391 
     20 H           1.206080    1.877131    1.423480 H         1 <1>         0.034319 
     21 H          -0.140278    1.702919   -1.413488 H         1 <1>         0.035392 
     22 H          -2.357666    0.728408   -1.772977 H         1 <1>         0.031202 
     23 H          -3.059951   -1.202295    0.000814 H         1 <1>         0.026846 
     24 H          -2.443146   -1.611301   -1.602891 H         1 <1>         0.026846 
     25 H          -1.060936   -2.125385    1.062494 H         1 <1>         0.027098 
     26 H          -1.519879   -3.219003   -0.228214 H         1 <1>         0.027098 
     27 H           0.823903   -3.086828   -0.353520 H         1 <1>         0.034300 
     28 H           2.203780    2.521994   -0.807456 H         1 <1>         0.023544 
     29 H           3.492022    2.326946    0.413411 H         1 <1>         0.023544 
     30 H           3.211454    1.044759   -0.802897 H         1 <1>         0.023544 
     31 H           1.400894   -2.080950   -2.516218 H         1 <1>         0.023544 
     32 H          -0.200435   -2.870451   -2.624457 H         1 <1>         0.023544 
     33 H          -0.077196   -1.089935   -2.524604 H         1 <1>         0.023544 
     34 H          -3.287173    2.707585    0.313803 H         1 <1>         0.023525 
     35 H          -1.683122    3.454449    0.585328 H         1 <1>         0.023525 
     36 H          -2.200807    3.031010   -1.067386 H         1 <1>         0.023525 
     37 H          -1.367759    1.639400    2.356494 H         1 <1>         0.023525 
     38 H          -2.679604    0.502042    1.947547 H         1 <1>         0.023525 
     39 H          -0.972192   -0.020175    1.902873 H         1 <1>         0.023525 
@<TRIPOS>BOND
     1    1    2 1    
     2    1   10 1    
     3    1   16 1    
     4    1   17 1    
     5    2    3 1    
     6    2   18 1    
     7    2   19 1    
     8    3    4 1    
     9    3   12 1    
    10    3   20 1    
    11    4    5 1    
    12    4   10 2    
    13    5    6 1    
    14    5   11 1    
    15    5   21 1    
    16    6    7 1    
    17    6   11 1    
    18    6   22 1    
    19    7    8 1    
    20    7   23 1    
    21    7   24 1    
    22    8    9 1    
    23    8   25 1    
    24    8   26 1    
    25    9   10 1    
    26    9   13 1    
    27    9   27 1    
    28   11   14 1    
    29   11   15 1    
    30   12   28 1    
    31   12   29 1    
    32   12   30 1    
    33   13   31 1    
    34   13   32 1    
    35   13   33 1    
    36   14   34 1    
    37   14   35 1    
    38   14   36 1    
    39   15   37 1    
    40   15   38 1    
    41   15   39 1    
@<TRIPOS>SUBSTRUCTURE
     1 ****        1 TEMP              0 ****  ****    0 ROOT 
@<TRIPOS>NORMAL
@<TRIPOS>FF_PBC
FORCE_FIELD_SETUP_FEATURE Force Field Setup information
v1.0  0 0.000000 0.000000 0.000000 0.000000 0.000000 0.000000 NONE 0 0 0 0 1 0 0 0 0 0 0 0 0
