@<TRIPOS>MOLECULE
MOL002844
   31    33     1     1     0
SMALL
GASTEIGER


@<TRIPOS>ATOM
      1 C          -2.989301   -0.573388    1.851126 C.ar      1 <1>        -0.001314 
      2 C          -1.819143   -1.254181    1.812622 C.ar      1 <1>         0.087967 
      3 C          -0.561022   -0.527644    1.497437 C.ar      1 <1>         0.077223 
      4 C          -0.592127    0.815588    1.248738 C.ar      1 <1>         0.092361 
      5 C          -1.882144    1.541056    1.299752 C.ar      1 <1>        -0.001026 
      6 C          -3.025272    0.888092    1.584373 C.ar      1 <1>         0.077503 
      7 C           0.765713   -1.246222    1.430695 C.2       1 <1>         0.170906 
      8 C           2.020895   -0.448622    1.233359 C.3       1 <1>         0.041564 
      9 C           1.698336    0.812098    0.394219 C.3       1 <1>         0.097160 
     10 O           0.577208    1.519569    0.953355 O.3       1 <1>        -0.335586 
     11 C           1.563884    0.512763   -1.114429 C.ar      1 <1>        -0.017977 
     12 C           2.595624    1.035038   -2.051056 C.ar      1 <1>        -0.056091 
     13 C           2.512466    0.797755   -3.382664 C.ar      1 <1>        -0.061420 
     14 C           1.386944    0.004949   -3.928853 C.ar      1 <1>        -0.061740 
     15 C           0.443559   -0.478930   -3.097336 C.ar      1 <1>        -0.061420 
     16 C           0.527374   -0.218515   -1.639986 C.ar      1 <1>        -0.056091 
     17 O          -4.226454    1.599070    1.624180 O.3       1 <1>        -0.359667 
     18 O          -1.820605   -2.627962    2.069372 O.3       1 <1>        -0.358967 
     19 O           0.806197   -2.461076    1.544617 O.2       1 <1>        -0.291783 
     20 H           2.540493    1.511930    0.515874 H         1 <1>         0.065571 
     21 H          -3.903302   -1.109938    2.079726 H         1 <1>         0.066923 
     22 H          -1.902401    2.607368    1.105424 H         1 <1>         0.066932 
     23 H           2.800975   -1.050188    0.741077 H         1 <1>         0.037400 
     24 H           2.374928   -0.155302    2.234115 H         1 <1>         0.037400 
     25 H           3.430771    1.616622   -1.673937 H         1 <1>         0.062111 
     26 H           3.269994    1.187469   -4.056272 H         1 <1>         0.061767 
     27 H           1.327117   -0.182556   -4.996596 H         1 <1>         0.061758 
     28 H          -0.383669   -1.061941   -3.491077 H         1 <1>         0.061767 
     29 H          -0.253706   -0.623189   -1.013738 H         1 <1>         0.062111 
     30 H          -4.983407    1.062445    1.831230 H         1 <1>         0.217316 
     31 H          -0.960025   -3.030257    1.991551 H         1 <1>         0.217342 
@<TRIPOS>BOND
     1    1    2 2    
     2    1    6 1    
     3    1   21 1    
     4    2    3 1    
     5    2   18 1    
     6    3    4 2    
     7    3    7 1    
     8    4    5 1    
     9    4   10 1    
    10    5    6 2    
    11    5   22 1    
    12    6   17 1    
    13    7    8 1    
    14    7   19 2    
    15    8    9 1    
    16    8   23 1    
    17    8   24 1    
    18    9   10 1    
    19    9   11 1    
    20    9   20 1    
    21   11   12 1    
    22   11   16 2    
    23   12   13 2    
    24   12   25 1    
    25   13   14 1    
    26   13   26 1    
    27   14   15 2    
    28   14   27 1    
    29   15   16 1    
    30   15   28 1    
    31   16   29 1    
    32   17   30 1    
    33   18   31 1    
@<TRIPOS>SUBSTRUCTURE
     1 ****        1 TEMP              0 ****  ****    0 ROOT 
@<TRIPOS>NORMAL
@<TRIPOS>FF_PBC
FORCE_FIELD_SETUP_FEATURE Force Field Setup information
v1.0  0 0.000000 0.000000 0.000000 0.000000 0.000000 0.000000 NONE 0 0 0 0 1 0 0 0 0 0 0 0 0
