@<TRIPOS>MOLECULE
MOL004976
   35    37     1     1     0
SMALL
GASTEIGER


@<TRIPOS>ATOM
      1 C          -2.018934    0.769028   -0.010840 C.ar      1 <1>         0.052905 
      2 C          -2.538662   -0.604352   -0.044620 C.ar      1 <1>         0.095577 
      3 C          -0.518021    0.896314    0.011102 C.2       1 <1>         0.198092 
      4 C          -2.902860    1.861593   -0.000755 C.ar      1 <1>        -0.045973 
      5 C          -3.916246   -0.839590   -0.067024 C.ar      1 <1>        -0.000475 
      6 O          -1.649055   -1.669760   -0.054160 O.3       1 <1>        -0.315353 
      7 C           0.326557   -0.332767   -0.002343 C.2       1 <1>         0.052566 
      8 O          -0.088113    2.035635    0.039283 O.2       1 <1>        -0.286478 
      9 C          -4.363604    1.610642   -0.024561 C.ar      1 <1>        -0.030857 
     10 C          -4.866763    0.304438   -0.056759 C.ar      1 <1>         0.078313 
     11 C          -0.313076   -1.521790   -0.034071 C.2       1 <1>         0.058253 
     12 C           1.857479   -0.280317    0.018378 C.ar      1 <1>        -0.012138 
     13 O          -6.255053    0.120083   -0.078289 O.3       1 <1>        -0.347829 
     14 C           2.701091   -1.514907    0.005067 C.ar      1 <1>        -0.051413 
     15 C           2.591866    0.933908    0.051585 C.ar      1 <1>        -0.051413 
     16 C          -6.832027   -1.195110   -0.111444 C.3       1 <1>         0.043027 
     17 C           4.100772   -1.472143    0.023907 C.ar      1 <1>        -0.031115 
     18 C           4.074399    0.988678    0.071777 C.ar      1 <1>        -0.031115 
     19 C           4.827079   -0.188214    0.058419 C.ar      1 <1>         0.075849 
     20 O           6.228543   -0.198817    0.076276 O.3       1 <1>        -0.347912 
     21 C           6.996870    1.014812    0.110182 C.3       1 <1>         0.043026 
     22 H          -2.525923    2.878746    0.024140 H         1 <1>         0.062621 
     23 H          -4.260401   -1.865301   -0.091667 H         1 <1>         0.066953 
     24 H          -5.054501    2.446796   -0.017027 H         1 <1>         0.064349 
     25 H           0.135790   -2.506651   -0.047781 H         1 <1>         0.089749 
     26 H           2.279159   -2.507419   -0.019785 H         1 <1>         0.062443 
     27 H           2.115786    1.898775    0.064301 H         1 <1>         0.062443 
     28 H          -7.926070   -1.081425   -0.123287 H         1 <1>         0.052870 
     29 H          -6.553322   -1.771600    0.783969 H         1 <1>         0.052870 
     30 H          -6.530116   -1.736277   -1.021260 H         1 <1>         0.052870 
     31 H           4.676236   -2.392378    0.013273 H         1 <1>         0.064346 
     32 H           4.551226    1.960795    0.096978 H         1 <1>         0.064346 
     33 H           8.061074    0.737151    0.118477 H         1 <1>         0.052869 
     34 H           6.782670    1.593085    1.022067 H         1 <1>         0.052869 
     35 H           6.806052    1.628735   -0.783407 H         1 <1>         0.052869 
@<TRIPOS>BOND
     1    1    2 1    
     2    1    3 1    
     3    1    4 2    
     4    2    5 2    
     5    2    6 1    
     6    3    7 1    
     7    3    8 2    
     8    4    9 1    
     9    4   22 1    
    10    5   10 1    
    11    5   23 1    
    12    6   11 1    
    13    7   11 2    
    14    7   12 1    
    15    9   10 2    
    16    9   24 1    
    17   10   13 1    
    18   11   25 1    
    19   12   14 1    
    20   12   15 2    
    21   13   16 1    
    22   14   17 2    
    23   14   26 1    
    24   15   18 1    
    25   15   27 1    
    26   16   28 1    
    27   16   29 1    
    28   16   30 1    
    29   17   19 1    
    30   17   31 1    
    31   18   19 2    
    32   18   32 1    
    33   19   20 1    
    34   20   21 1    
    35   21   33 1    
    36   21   34 1    
    37   21   35 1    
@<TRIPOS>SUBSTRUCTURE
     1 ****        1 TEMP              0 ****  ****    0 ROOT 
@<TRIPOS>NORMAL
@<TRIPOS>FF_PBC
FORCE_FIELD_SETUP_FEATURE Force Field Setup information
v1.0  0 0.000000 0.000000 0.000000 0.000000 0.000000 0.000000 NONE 0 0 0 0 1 0 0 0 0 0 0 0 0
