@<TRIPOS>MOLECULE
MOL002998
   13    13     1     1     0
SMALL
GASTEIGER


@<TRIPOS>ATOM
      1 C           0.757292    0.878326   -0.232870 C.ar      1 <1>         0.072581 
      2 C           1.314577   -0.447883    0.121348 C.ar      1 <1>        -0.031939 
      3 C          -0.659046    1.051593   -0.281197 C.ar      1 <1>        -0.031939 
      4 O           1.630714    1.932421   -0.512403 O.3       1 <1>        -0.359833 
      5 C           0.457294   -1.528998    0.408093 C.ar      1 <1>        -0.059328 
      6 C          -1.555478   -0.089796    0.021553 C.ar      1 <1>        -0.059328 
      7 C          -1.012607   -1.345012    0.356823 C.ar      1 <1>        -0.061602 
      8 H           2.390694   -0.578977    0.157928 H         1 <1>         0.064320 
      9 H          -1.090482    2.013001   -0.538019 H         1 <1>         0.064320 
     10 H           1.196595    2.749174   -0.730787 H         1 <1>         0.217313 
     11 H           0.871307   -2.498273    0.666983 H         1 <1>         0.061837 
     12 H          -2.631852    0.044927   -0.015983 H         1 <1>         0.061837 
     13 H          -1.669109   -2.180503    0.578429 H         1 <1>         0.061760 
@<TRIPOS>BOND
     1    1    2 1    
     2    1    3 2    
     3    1    4 1    
     4    2    5 2    
     5    2    8 1    
     6    3    6 1    
     7    3    9 1    
     8    4   10 1    
     9    5    7 1    
    10    5   11 1    
    11    6    7 2    
    12    6   12 1    
    13    7   13 1    
@<TRIPOS>SUBSTRUCTURE
     1 ****        1 TEMP              0 ****  ****    0 ROOT 
@<TRIPOS>NORMAL
@<TRIPOS>FF_PBC
FORCE_FIELD_SETUP_FEATURE Force Field Setup information
v1.0  0 0.000000 0.000000 0.000000 0.000000 0.000000 0.000000 NONE 0 0 0 0 1 0 0 0 0 0 0 0 0
