@<TRIPOS>MOLECULE
MOL005297
   41    40     1     1     0
SMALL
GASTEIGER


@<TRIPOS>ATOM
      1 C           0.546540    0.349434    0.385580 C.3       1 <1>        -0.040807 
      2 C           1.917135    1.106761    0.425397 C.3       1 <1>        -0.047862 
      3 C          -0.622540    1.386313    0.261299 C.3       1 <1>        -0.050209 
      4 C           0.512688   -0.723090   -0.749309 C.3       1 <1>        -0.050209 
      5 C           3.195319    0.220146    0.598695 C.3       1 <1>        -0.046471 
      6 C          -1.856996    1.046184    1.148150 C.3       1 <1>        -0.053056 
      7 C          -0.823094   -1.505875   -0.884035 C.3       1 <1>        -0.053056 
      8 C           4.231508    0.911043    1.533734 C.3       1 <1>        -0.062656 
      9 C           3.893582   -0.079784   -0.761569 C.3       1 <1>        -0.062656 
     10 C          -3.010200    2.063973    0.928715 C.3       1 <1>        -0.055902 
     11 C          -0.715370   -2.635341   -1.946308 C.3       1 <1>        -0.055902 
     12 C          -4.230936    1.737320    1.828281 C.3       1 <1>        -0.065276 
     13 C          -2.055289   -3.403438   -2.091155 C.3       1 <1>        -0.065276 
     14 H           0.447878   -0.177140    1.350604 H         1 <1>         0.030086 
     15 H           1.863927    1.790832    1.288539 H         1 <1>         0.027042 
     16 H           2.018208    1.733014   -0.475279 H         1 <1>         0.027042 
     17 H          -0.294779    2.385813    0.590423 H         1 <1>         0.026794 
     18 H          -0.917787    1.490058   -0.794536 H         1 <1>         0.026794 
     19 H           1.286973   -1.478079   -0.547247 H         1 <1>         0.026794 
     20 H           0.737199   -0.236985   -1.712308 H         1 <1>         0.026794 
     21 H           2.918507   -0.730006    1.086798 H         1 <1>         0.029557 
     22 H          -1.554610    1.071157    2.208480 H         1 <1>         0.026529 
     23 H          -2.237798    0.038080    0.935500 H         1 <1>         0.026529 
     24 H          -1.632275   -0.827718   -1.196618 H         1 <1>         0.026529 
     25 H          -1.083738   -1.955129    0.088186 H         1 <1>         0.026529 
     26 H           4.745285   -0.760935   -0.609002 H         1 <1>         0.023233 
     27 H           3.219242   -0.546175   -1.490936 H         1 <1>         0.023233 
     28 H           4.274869    0.852765   -1.205440 H         1 <1>         0.023233 
     29 H           5.137437    0.293248    1.636835 H         1 <1>         0.023233 
     30 H           3.810513    1.061431    2.540550 H         1 <1>         0.023233 
     31 H           4.521538    1.891654    1.125424 H         1 <1>         0.023233 
     32 H           0.073602   -3.348568   -1.654469 H         1 <1>         0.026265 
     33 H          -0.442111   -2.200106   -2.922189 H         1 <1>         0.026265 
     34 H          -2.657337    3.083033    1.159542 H         1 <1>         0.026265 
     35 H          -3.325835    2.039448   -0.127782 H         1 <1>         0.026265 
     36 H          -5.036529    2.468241    1.654632 H         1 <1>         0.022978 
     37 H          -4.617232    0.731095    1.602597 H         1 <1>         0.022978 
     38 H          -3.946106    1.776522    2.891270 H         1 <1>         0.022978 
     39 H          -2.340775   -3.861923   -1.131498 H         1 <1>         0.022978 
     40 H          -2.858633   -2.720843   -2.409529 H         1 <1>         0.022978 
     41 H          -1.955500   -4.201114   -2.844277 H         1 <1>         0.022978 
@<TRIPOS>BOND
     1    1    2 1    
     2    1    3 1    
     3    1    4 1    
     4    1   14 1    
     5    2    5 1    
     6    2   15 1    
     7    2   16 1    
     8    3    6 1    
     9    3   17 1    
    10    3   18 1    
    11    4    7 1    
    12    4   19 1    
    13    4   20 1    
    14    5    8 1    
    15    5    9 1    
    16    5   21 1    
    17    6   10 1    
    18    6   22 1    
    19    6   23 1    
    20    7   11 1    
    21    7   24 1    
    22    7   25 1    
    23    8   29 1    
    24    8   30 1    
    25    8   31 1    
    26    9   26 1    
    27    9   27 1    
    28    9   28 1    
    29   10   12 1    
    30   10   34 1    
    31   10   35 1    
    32   11   13 1    
    33   11   32 1    
    34   11   33 1    
    35   12   36 1    
    36   12   37 1    
    37   12   38 1    
    38   13   39 1    
    39   13   40 1    
    40   13   41 1    
@<TRIPOS>SUBSTRUCTURE
     1 ****        1 TEMP              0 ****  ****    0 ROOT 
@<TRIPOS>NORMAL
@<TRIPOS>FF_PBC
FORCE_FIELD_SETUP_FEATURE Force Field Setup information
v1.0  0 0.000000 0.000000 0.000000 0.000000 0.000000 0.000000 NONE 0 0 0 0 1 0 0 0 0 0 0 0 0
