@<TRIPOS>MOLECULE
MOL004581
   32    33     1     1     0
SMALL
GASTEIGER


@<TRIPOS>ATOM
      1 C          -0.919302   -0.869454   -0.597127 C.3       1 <1>        -0.012051 
      2 C          -0.323935   -2.292646   -0.762320 C.3       1 <1>        -0.042311 
      3 C          -0.311298   -2.331978    0.789854 C.3       1 <1>        -0.031349 
      4 C           1.026335   -1.668443    1.231994 C.3       1 <1>        -0.031064 
      5 C           1.219518   -0.364944    0.479631 C.2       1 <1>        -0.082028 
      6 C           0.279683    0.033965   -0.393089 C.2       1 <1>        -0.043940 
      7 C           1.607752    3.234913   -1.528479 C.2       1 <1>         0.259336 
      8 O           1.506584    2.076252   -0.862398 O.3       1 <1>        -0.311005 
      9 C           0.326180    1.314537   -1.189227 C.3       1 <1>         0.078429 
     10 C           2.835911    4.040601   -1.210797 C.3       1 <1>         0.021444 
     11 O           0.784167    3.619381   -2.344395 O.2       1 <1>        -0.265273 
     12 C          -1.478065   -1.301063    0.786404 C.3       1 <1>        -0.025183 
     13 C          -2.880924   -1.977105    0.690075 C.3       1 <1>        -0.059006 
     14 C          -1.520514   -0.223442    1.913915 C.3       1 <1>        -0.059006 
     15 H          -1.652022   -0.554212   -1.356984 H         1 <1>         0.035170 
     16 H          -1.016584   -3.013872   -1.221910 H         1 <1>         0.027407 
     17 H           0.653569   -2.358593   -1.268953 H         1 <1>         0.027407 
     18 H          -0.519740   -3.308253    1.256800 H         1 <1>         0.030925 
     19 H           1.015147   -1.488498    2.317976 H         1 <1>         0.031026 
     20 H           1.863878   -2.346601    1.004783 H         1 <1>         0.031026 
     21 H           2.114889    0.227087    0.668848 H         1 <1>         0.057251 
     22 H          -0.581040    1.893743   -0.950596 H         1 <1>         0.061287 
     23 H           0.321047    1.052576   -2.259982 H         1 <1>         0.061287 
     24 H           2.975989    4.093322   -0.120841 H         1 <1>         0.033023 
     25 H           3.713366    3.557014   -1.664433 H         1 <1>         0.033023 
     26 H           2.742484    5.062407   -1.608356 H         1 <1>         0.033023 
     27 H          -3.638573   -1.216829    0.446788 H         1 <1>         0.023525 
     28 H          -3.136915   -2.424409    1.662478 H         1 <1>         0.023525 
     29 H          -2.954216   -2.769573   -0.066023 H         1 <1>         0.023525 
     30 H          -2.331981    0.488175    1.699833 H         1 <1>         0.023525 
     31 H          -1.734254   -0.717925    2.873349 H         1 <1>         0.023525 
     32 H          -0.605335    0.367160    2.043479 H         1 <1>         0.023525 
@<TRIPOS>BOND
     1    1    2 1    
     2    6    1 1    
     3    1   12 1    
     4    1   15 1    
     5    2    3 1    
     6    2   16 1    
     7    2   17 1    
     8    4    3 1    
     9   12    3 1    
    10    3   18 1    
    11    5    4 1    
    12    4   19 1    
    13    4   20 1    
    14    6    5 2    
    15    5   21 1    
    16    9    6 1    
    17    8    7 1    
    18    7   10 1    
    19    7   11 2    
    20    8    9 1    
    21    9   22 1    
    22    9   23 1    
    23   10   24 1    
    24   10   25 1    
    25   10   26 1    
    26   12   13 1    
    27   12   14 1    
    28   13   27 1    
    29   13   28 1    
    30   13   29 1    
    31   14   30 1    
    32   14   31 1    
    33   14   32 1    
@<TRIPOS>SUBSTRUCTURE
     1 ****        7 TEMP              0 ****  ****    0 ROOT 
@<TRIPOS>NORMAL
@<TRIPOS>FF_PBC
FORCE_FIELD_SETUP_FEATURE Force Field Setup information
v1.0  0 0.000000 0.000000 0.000000 0.000000 0.000000 0.000000 NONE 0 0 0 0 1 0 0 0 0 0 0 0 0
