@<TRIPOS>MOLECULE
MOL004898
   45    46     1     1     0
SMALL
GASTEIGER


@<TRIPOS>ATOM
      1 O          -5.389702    1.043011    0.095909 O.3       1 <1>        -0.357037 
      2 O          -4.569802    3.738740    0.639322 O.3       1 <1>        -0.357255 
      3 O           2.758179    0.422511    1.727922 O.3       1 <1>        -0.359040 
      4 O           2.869645    3.363220   -0.926788 O.2       1 <1>        -0.287193 
      5 O           7.082000   -1.419145    0.216483 O.3       1 <1>        -0.359749 
      6 C          -3.097871    0.447815   -0.493821 C.ar      1 <1>        -0.010848 
      7 C          -3.473391   -0.998671   -0.836643 C.3       1 <1>        -0.006708 
      8 C          -1.676600    0.851172   -0.625186 C.ar      1 <1>        -0.048509 
      9 C          -1.267396    2.171886   -0.329070 C.ar      1 <1>        -0.022057 
     10 C          -4.050116    1.394932   -0.062413 C.ar      1 <1>         0.105715 
     11 C          -3.077802   -1.858055    0.341376 C.2       1 <1>        -0.080897 
     12 C          -3.630511    2.788664    0.232479 C.ar      1 <1>         0.103028 
     13 C          -2.287578    3.157298    0.104574 C.ar      1 <1>        -0.022232 
     14 C          -2.330878   -2.972471    0.289874 C.2       1 <1>        -0.079307 
     15 C           0.174301    2.622262   -0.455661 C.2       1 <1>        -0.050868 
     16 C           1.225987    1.799423   -0.343792 C.2       1 <1>        -0.013707 
     17 C           3.779963    1.284355   -0.300570 C.ar      1 <1>         0.051478 
     18 C          -1.968648   -3.733596    1.546058 C.3       1 <1>        -0.044040 
     19 C          -1.795337   -3.548287   -1.001528 C.3       1 <1>        -0.044040 
     20 C           2.625406    2.232828   -0.539535 C.2       1 <1>         0.188543 
     21 C           3.792978    0.409893    0.794545 C.ar      1 <1>         0.085798 
     22 C           4.919083    1.286449   -1.250974 C.ar      1 <1>        -0.046025 
     23 C           4.920046   -0.536222    0.976223 C.ar      1 <1>        -0.001470 
     24 C           5.995338    0.402058   -1.071935 C.ar      1 <1>        -0.031105 
     25 C           6.004539   -0.542588    0.067698 C.ar      1 <1>         0.075057 
     26 H          -4.550811   -1.106265   -1.033468 H         1 <1>         0.035641 
     27 H          -2.943685   -1.254823   -1.764518 H         1 <1>         0.035641 
     28 H          -0.961313    0.110522   -0.962647 H         1 <1>         0.062706 
     29 H          -3.447137   -1.510447    1.307222 H         1 <1>         0.057472 
     30 H          -1.997565    4.178243    0.327236 H         1 <1>         0.064994 
     31 H           0.344288    3.681296   -0.653096 H         1 <1>         0.062460 
     32 H           1.082701    0.747400   -0.108507 H         1 <1>         0.065602 
     33 H          -2.298625   -3.233697    2.470612 H         1 <1>         0.027427 
     34 H          -2.434624   -4.730085    1.509144 H         1 <1>         0.027427 
     35 H          -0.875195   -3.853534    1.597708 H         1 <1>         0.027427 
     36 H          -0.952523   -2.931523   -1.348847 H         1 <1>         0.027427 
     37 H          -1.432906   -4.579530   -0.870434 H         1 <1>         0.027427 
     38 H          -2.573504   -3.575852   -1.779202 H         1 <1>         0.027427 
     39 H          -5.483607    0.328613    0.715909 H         1 <1>         0.217432 
     40 H           4.918833    1.974484   -2.090793 H         1 <1>         0.062620 
     41 H          -5.448806    3.373229    0.649173 H         1 <1>         0.217422 
     42 H           4.899909   -1.221028    1.815432 H         1 <1>         0.066921 
     43 H           6.826295    0.403994   -1.767828 H         1 <1>         0.064341 
     44 H           2.694847    1.272778    2.146521 H         1 <1>         0.217341 
     45 H           7.099491   -1.880259    1.046742 H         1 <1>         0.217315 
@<TRIPOS>BOND
     1   10    1 1    
     2    1   39 1    
     3   12    2 1    
     4    2   41 1    
     5   21    3 1    
     6    3   44 1    
     7   20    4 2    
     8   25    5 1    
     9    5   45 1    
    10    6    7 1    
    11    8    6 1    
    12    6   10 2    
    13    7   11 1    
    14    7   26 1    
    15    7   27 1    
    16    9    8 2    
    17    8   28 1    
    18    9   13 1    
    19   15    9 1    
    20   12   10 1    
    21   11   14 2    
    22   11   29 1    
    23   13   12 2    
    24   13   30 1    
    25   14   18 1    
    26   14   19 1    
    27   16   15 2    
    28   15   31 1    
    29   20   16 1    
    30   16   32 1    
    31   17   20 1    
    32   21   17 2    
    33   17   22 1    
    34   18   33 1    
    35   18   34 1    
    36   18   35 1    
    37   19   36 1    
    38   19   37 1    
    39   19   38 1    
    40   23   21 1    
    41   22   24 2    
    42   22   40 1    
    43   23   25 2    
    44   23   42 1    
    45   24   25 1    
    46   24   43 1    
@<TRIPOS>SUBSTRUCTURE
     1 ****        6 TEMP              0 ****  ****    0 ROOT 
@<TRIPOS>NORMAL
@<TRIPOS>FF_PBC
FORCE_FIELD_SETUP_FEATURE Force Field Setup information
v1.0  0 0.000000 0.000000 0.000000 0.000000 0.000000 0.000000 NONE 0 0 0 0 1 0 0 0 0 0 0 0 0
