@<TRIPOS>MOLECULE
MOL000065
   16    15     1     1     0
SMALL
GASTEIGER


@<TRIPOS>ATOM
      1 C           1.921682    0.102092   -0.193341 C.2       1 <1>         0.277040 
      2 N           0.104370   -1.391782   -0.908189 N.3       1 <1>        -0.318916 
      3 C           0.441527   -0.014434   -0.477351 C.3       1 <1>         0.100407 
      4 C          -0.362772    0.393393    0.783931 C.3       1 <1>         0.057394 
      5 C          -1.825369    0.508327    0.445490 C.2       1 <1>         0.261582 
      6 O          -2.479024    1.505155    0.711360 O.2       1 <1>        -0.265106 
      7 O          -2.349892   -0.552735   -0.173167 O.3       1 <1>        -0.331219 
      8 O           2.636356   -0.881267   -0.098414 O.2       1 <1>        -0.263424 
      9 O           2.381973    1.346875   -0.050651 O.3       1 <1>        -0.330088 
     10 H          -0.963530   -1.510870   -1.032339 H         1 <1>         0.118932 
     11 H           0.468230   -2.119062   -0.195857 H         1 <1>         0.118932 
     12 H           0.206445    0.679666   -1.303369 H         1 <1>         0.056716 
     13 H          -0.225370   -0.357435    1.575149 H         1 <1>         0.038641 
     14 H          -0.003020    1.359966    1.166174 H         1 <1>         0.038641 
     15 H          -3.268006   -0.418742   -0.380639 H         1 <1>         0.220209 
     16 H           3.316599    1.350854    0.130813 H         1 <1>         0.220259 
@<TRIPOS>BOND
     1    1    3 1    
     2    1    8 2    
     3    1    9 1    
     4    3    2 1    
     5    2   10 1    
     6    2   11 1    
     7    3    4 1    
     8    3   12 1    
     9    4    5 1    
    10    4   13 1    
    11    4   14 1    
    12    5    6 2    
    13    5    7 1    
    14    7   15 1    
    15    9   16 1    
@<TRIPOS>SUBSTRUCTURE
     1 ****        1 TEMP              0 ****  ****    0 ROOT 
@<TRIPOS>NORMAL
@<TRIPOS>FF_PBC
FORCE_FIELD_SETUP_FEATURE Force Field Setup information
v1.0  0 0.000000 0.000000 0.000000 0.000000 0.000000 0.000000 NONE 0 0 0 0 1 0 0 0 0 0 0 0 0
