@<TRIPOS>MOLECULE
MOL000264
   26    26     1     1     0
SMALL
GASTEIGER


@<TRIPOS>ATOM
      1 C          -0.190354   -0.773113   -0.002130 C.2       1 <1>        -0.066789 
      2 C          -0.599192   -1.571487    1.004526 C.2       1 <1>        -0.076157 
      3 C          -1.116430    0.130505   -0.784934 C.3       1 <1>        -0.027538 
      4 C           1.250507   -0.692963   -0.462483 C.3       1 <1>        -0.013044 
      5 C           0.323328   -2.560098    1.692015 C.3       1 <1>        -0.043786 
      6 C          -2.020246   -1.544150    1.531725 C.3       1 <1>        -0.043786 
      7 C          -0.650295    1.588899   -0.572765 C.3       1 <1>        -0.028292 
      8 C           1.644225    0.691778   -0.922747 C.2       1 <1>        -0.081016 
      9 C           0.801221    1.734145   -0.962628 C.2       1 <1>        -0.075932 
     10 C           1.240445    3.115736   -1.392360 C.3       1 <1>        -0.043768 
     11 H          -2.183667    0.040560   -0.538412 H         1 <1>         0.031320 
     12 H          -1.015893   -0.127915   -1.851723 H         1 <1>         0.031320 
     13 H           1.955695   -0.933236    0.346535 H         1 <1>         0.035246 
     14 H           1.397901   -1.401308   -1.292046 H         1 <1>         0.035246 
     15 H          -0.235853   -3.438894    2.047536 H         1 <1>         0.027435 
     16 H           0.797198   -2.073358    2.557413 H         1 <1>         0.027435 
     17 H           1.102256   -2.951470    1.022196 H         1 <1>         0.027435 
     18 H          -2.356329   -0.509923    1.698652 H         1 <1>         0.027435 
     19 H          -2.691119   -2.040754    0.814774 H         1 <1>         0.027435 
     20 H          -2.112015   -2.057540    2.500798 H         1 <1>         0.027435 
     21 H          -0.768226    1.878741    0.483388 H         1 <1>         0.031294 
     22 H          -1.280318    2.251111   -1.189036 H         1 <1>         0.031294 
     23 H           2.682435    0.828691   -1.229061 H         1 <1>         0.057470 
     24 H           2.321931    3.175232   -1.586918 H         1 <1>         0.027436 
     25 H           0.993956    3.838659   -0.600186 H         1 <1>         0.027436 
     26 H           0.708941    3.402250   -2.312231 H         1 <1>         0.027436 
@<TRIPOS>BOND
     1    1    2 2    
     2    1    3 1    
     3    1    4 1    
     4    2    5 1    
     5    2    6 1    
     6    3    7 1    
     7    3   11 1    
     8    3   12 1    
     9    4    8 1    
    10    4   13 1    
    11    4   14 1    
    12    5   15 1    
    13    5   16 1    
    14    5   17 1    
    15    6   18 1    
    16    6   19 1    
    17    6   20 1    
    18    7    9 1    
    19    7   21 1    
    20    7   22 1    
    21    8    9 2    
    22    8   23 1    
    23    9   10 1    
    24   10   24 1    
    25   10   25 1    
    26   10   26 1    
@<TRIPOS>SUBSTRUCTURE
     1 ****        1 TEMP              0 ****  ****    0 ROOT 
@<TRIPOS>NORMAL
@<TRIPOS>FF_PBC
FORCE_FIELD_SETUP_FEATURE Force Field Setup information
v1.0  0 0.000000 0.000000 0.000000 0.000000 0.000000 0.000000 NONE 0 0 0 0 1 0 0 0 0 0 0 0 0
