@<TRIPOS>MOLECULE
MOL002198
   23    22     1     1     0
SMALL
GASTEIGER


@<TRIPOS>ATOM
      1 C           0.053000   -0.529615    0.000127 C.3       1 <1>        -0.053074 
      2 C          -1.311163    0.213639   -0.000093 C.3       1 <1>        -0.053306 
      3 C           1.242821    0.469214   -0.000101 C.3       1 <1>        -0.053306 
      4 C          -2.500630   -0.785167    0.000131 C.3       1 <1>        -0.055911 
      5 C           2.606610   -0.274098    0.000108 C.3       1 <1>        -0.055911 
      6 C          -3.862098   -0.042034   -0.000090 C.3       1 <1>        -0.065276 
      7 C           3.793831    0.724073   -0.000097 C.3       1 <1>        -0.065276 
      8 H           0.117308   -1.172340    0.893569 H         1 <1>         0.026528 
      9 H           0.117352   -1.172785   -0.892990 H         1 <1>         0.026528 
     10 H          -1.376410    0.856181   -0.893552 H         1 <1>         0.026520 
     11 H          -1.376451    0.856636    0.893035 H         1 <1>         0.026520 
     12 H           1.179452    1.111941   -0.893539 H         1 <1>         0.026520 
     13 H           1.179409    1.112387    0.893040 H         1 <1>         0.026520 
     14 H          -2.442219   -1.428806    0.893741 H         1 <1>         0.026265 
     15 H          -2.442177   -1.429259   -0.893136 H         1 <1>         0.026265 
     16 H           2.676907   -0.916560    0.893726 H         1 <1>         0.026265 
     17 H           2.676952   -0.916986   -0.893150 H         1 <1>         0.026265 
     18 H          -4.690441   -0.768264    0.000076 H         1 <1>         0.022978 
     19 H          -3.953547    0.592787   -0.895284 H         1 <1>         0.022978 
     20 H          -3.953592    0.593242    0.894788 H         1 <1>         0.022978 
     21 H           4.749667    0.176382    0.000074 H         1 <1>         0.022978 
     22 H           3.757685    1.364442   -0.895284 H         1 <1>         0.022978 
     23 H           3.757634    1.364886    0.894799 H         1 <1>         0.022978 
@<TRIPOS>BOND
     1    1    2 1    
     2    1    3 1    
     3    1    8 1    
     4    1    9 1    
     5    2    4 1    
     6    2   10 1    
     7    2   11 1    
     8    3    5 1    
     9    3   12 1    
    10    3   13 1    
    11    4    6 1    
    12    4   14 1    
    13    4   15 1    
    14    5    7 1    
    15    5   16 1    
    16    5   17 1    
    17    6   18 1    
    18    6   19 1    
    19    6   20 1    
    20    7   21 1    
    21    7   22 1    
    22    7   23 1    
@<TRIPOS>SUBSTRUCTURE
     1 ****        1 TEMP              0 ****  ****    0 ROOT 
@<TRIPOS>NORMAL
@<TRIPOS>FF_PBC
FORCE_FIELD_SETUP_FEATURE Force Field Setup information
v1.0  0 0.000000 0.000000 0.000000 0.000000 0.000000 0.000000 NONE 0 0 0 0 1 0 0 0 0 0 0 0 0
