@<TRIPOS>MOLECULE
MOL002206
   31    31     1     1     0
SMALL
GASTEIGER


@<TRIPOS>ATOM
      1 C          -1.799737    1.982037    0.138560 C.ar      1 <1>        -0.019011 
      2 C          -1.293259    0.582066    0.216265 C.ar      1 <1>        -0.042010 
      3 C          -2.247587   -0.486365    0.328203 C.ar      1 <1>        -0.058243 
      4 C          -3.702001   -0.207173    0.359461 C.ar      1 <1>        -0.061483 
      5 C          -4.166948    1.104023    0.279275 C.ar      1 <1>        -0.061413 
      6 C          -3.205375    2.223965    0.165762 C.ar      1 <1>        -0.056137 
      7 C          -0.827332    3.167434    0.028478 C.3       1 <1>         0.069483 
      8 O          -1.480742    4.425267    0.284579 O.3       1 <1>        -0.390408 
      9 C           0.226481    0.325547    0.172319 C.3       1 <1>        -0.027349 
     10 C           0.664757   -1.153675   -0.012902 C.3       1 <1>        -0.049060 
     11 C           2.206812   -1.270672   -0.167777 C.3       1 <1>        -0.053010 
     12 C           2.649193   -2.750636   -0.330927 C.3       1 <1>        -0.055902 
     13 C           4.187604   -2.865028   -0.490916 C.3       1 <1>        -0.065276 
     14 H          -1.934517   -1.520387    0.391708 H         1 <1>         0.062038 
     15 H          -4.406766   -1.028477    0.444452 H         1 <1>         0.061767 
     16 H          -5.233038    1.307191    0.300562 H         1 <1>         0.061768 
     17 H          -3.592205    3.235169    0.103702 H         1 <1>         0.062110 
     18 H          -0.013929    3.037606    0.760153 H         1 <1>         0.060719 
     19 H          -0.406616    3.164760   -0.990413 H         1 <1>         0.060719 
     20 H          -0.897875    5.175643    0.212627 H         1 <1>         0.209847 
     21 H           0.663443    0.704522    1.109413 H         1 <1>         0.031326 
     22 H           0.638519    0.903655   -0.669016 H         1 <1>         0.031326 
     23 H           0.182065   -1.569926   -0.912585 H         1 <1>         0.026840 
     24 H           0.361005   -1.744749    0.866528 H         1 <1>         0.026840 
     25 H           2.697055   -0.841108    0.721541 H         1 <1>         0.026529 
     26 H           2.532513   -0.697580   -1.051606 H         1 <1>         0.026529 
     27 H           2.161376   -3.186340   -1.218902 H         1 <1>         0.026265 
     28 H           2.335903   -3.330061    0.553629 H         1 <1>         0.026265 
     29 H           4.479667   -3.921333   -0.601724 H         1 <1>         0.022978 
     30 H           4.697807   -2.451738    0.393082 H         1 <1>         0.022978 
     31 H           4.523424   -2.313736   -1.383032 H         1 <1>         0.022978 
@<TRIPOS>BOND
     1    1    2 1    
     2    1    6 2    
     3    1    7 1    
     4    2    3 2    
     5    2    9 1    
     6    3    4 1    
     7    3   14 1    
     8    4    5 2    
     9    4   15 1    
    10    5    6 1    
    11    5   16 1    
    12    6   17 1    
    13    7    8 1    
    14    7   18 1    
    15    7   19 1    
    16    8   20 1    
    17    9   10 1    
    18    9   21 1    
    19    9   22 1    
    20   10   11 1    
    21   10   23 1    
    22   10   24 1    
    23   11   12 1    
    24   11   25 1    
    25   11   26 1    
    26   12   13 1    
    27   12   27 1    
    28   12   28 1    
    29   13   29 1    
    30   13   30 1    
    31   13   31 1    
@<TRIPOS>SUBSTRUCTURE
     1 ****        1 TEMP              0 ****  ****    0 ROOT 
@<TRIPOS>NORMAL
@<TRIPOS>FF_PBC
FORCE_FIELD_SETUP_FEATURE Force Field Setup information
v1.0  0 0.000000 0.000000 0.000000 0.000000 0.000000 0.000000 NONE 0 0 0 0 1 0 0 0 0 0 0 0 0
