@<TRIPOS>MOLECULE
MOL004813
   49    51     1     1     0
SMALL
GASTEIGER


@<TRIPOS>ATOM
      1 O          -1.389494    0.433347   -4.439163 O.3       1 <1>        -0.343732 
      2 O           2.150659    1.139537   -0.847897 O.3       1 <1>        -0.359186 
      3 O           0.687807   -1.675839    2.897197 O.3       1 <1>        -0.347548 
      4 C          -0.456473    0.931399   -2.210160 C.3       1 <1>         0.014542 
      5 C          -1.674628    1.892535   -2.082360 C.3       1 <1>        -0.016206 
      6 C          -2.882562    1.415935   -2.889138 C.ar      1 <1>        -0.016591 
      7 C          -0.630854   -0.116756   -3.348547 C.3       1 <1>         0.061398 
      8 C          -0.162297    0.251506   -0.861011 C.ar      1 <1>        -0.011643 
      9 C          -2.687294    0.747468   -4.034804 C.ar      1 <1>         0.081813 
     10 C          -4.260418    1.695977   -2.421122 C.ar      1 <1>        -0.053677 
     11 C          -5.311782    1.308715   -3.161622 C.ar      1 <1>        -0.031521 
     12 C          -3.848704    0.338330   -4.862105 C.ar      1 <1>        -0.001642 
     13 C          -5.105779    0.604338   -4.449721 C.ar      1 <1>         0.075043 
     14 C           1.161942    0.396008   -0.212602 C.ar      1 <1>         0.081998 
     15 C          -1.151297   -0.498802   -0.219222 C.ar      1 <1>        -0.053328 
     16 C           1.425890   -0.198159    1.033245 C.ar      1 <1>         0.016234 
     17 C          -0.868777   -1.171870    1.068092 C.ar      1 <1>        -0.030985 
     18 C           0.387143   -1.036426    1.686843 C.ar      1 <1>         0.081731 
     19 C          -0.299722   -2.425529    3.621236 C.3       1 <1>         0.043039 
     20 O          -6.221388    0.235542   -5.205682 O.3       1 <1>        -0.359750 
     21 C           2.807375    0.050509    1.663488 C.3       1 <1>        -0.004345 
     22 C           2.948358   -0.025070    3.166865 C.2       1 <1>        -0.080815 
     23 C           4.123568   -0.210629    3.794516 C.2       1 <1>        -0.079306 
     24 H           2.787550    0.564177   -1.256483 H         1 <1>         0.217338 
     25 H           0.408442    1.558182   -2.478039 H         1 <1>         0.037526 
     26 H          -1.949335    2.042072   -1.026871 H         1 <1>         0.032055 
     27 H          -1.436009    2.885410   -2.498125 H         1 <1>         0.032055 
     28 H           0.351216   -0.445329   -3.724159 H         1 <1>         0.057101 
     29 H          -1.161972   -1.017585   -2.998377 H         1 <1>         0.057101 
     30 H          -4.415955    2.213671   -1.478409 H         1 <1>         0.062187 
     31 H          -6.320218    1.506950   -2.823118 H         1 <1>         0.064330 
     32 H          -3.664859   -0.173132   -5.798999 H         1 <1>         0.066918 
     33 H          -2.139141   -0.595504   -0.661423 H         1 <1>         0.062197 
     34 H          -1.658006   -1.767444    1.506887 H         1 <1>         0.064347 
     35 H           0.155596   -2.759745    4.567639 H         1 <1>         0.052870 
     36 H          -1.170436   -1.795545    3.856963 H         1 <1>         0.052870 
     37 H          -0.615485   -3.309603    3.045509 H         1 <1>         0.052870 
     38 H          -6.043431   -0.401413   -5.889248 H         1 <1>         0.217315 
     39 H           3.135447    1.070963    1.404463 H         1 <1>         0.035721 
     40 H           3.468655   -0.681934    1.176658 H         1 <1>         0.035721 
     41 H           2.044498    0.092702    3.764347 H         1 <1>         0.057473 
     42 C           5.449859   -0.312809    3.067322 C.3       1 <1>        -0.044040 
     43 C           4.211348   -0.330772    5.299986 C.3       1 <1>        -0.044040 
     44 H           4.876891    0.449787    5.692716 H         1 <1>         0.027427 
     45 H           4.636941   -1.308982    5.556775 H         1 <1>         0.027427 
     46 H           3.240346   -0.238258    5.805930 H         1 <1>         0.027427 
     47 H           5.450854    0.128614    2.060628 H         1 <1>         0.027427 
     48 H           6.229078    0.208630    3.641589 H         1 <1>         0.027427 
     49 H           5.734688   -1.369921    2.989584 H         1 <1>         0.027427 
@<TRIPOS>BOND
     1    7    1 1    
     2    1    9 1    
     3   14    2 1    
     4    2   24 1    
     5   18    3 1    
     6    3   19 1    
     7    4    5 1    
     8    4    7 1    
     9    8    4 1    
    10    4   25 1    
    11    5    6 1    
    12    5   26 1    
    13    5   27 1    
    14    6    9 2    
    15    6   10 1    
    16    7   28 1    
    17    7   29 1    
    18   14    8 1    
    19    8   15 2    
    20    9   12 1    
    21   10   11 2    
    22   10   30 1    
    23   11   13 1    
    24   11   31 1    
    25   12   13 2    
    26   12   32 1    
    27   13   20 1    
    28   16   14 2    
    29   15   17 1    
    30   15   33 1    
    31   16   18 1    
    32   16   21 1    
    33   17   18 2    
    34   17   34 1    
    35   19   35 1    
    36   19   36 1    
    37   19   37 1    
    38   20   38 1    
    39   21   22 1    
    40   21   39 1    
    41   21   40 1    
    42   22   23 2    
    43   22   41 1    
    44   23   42 1    
    45   23   43 1    
    46   42   47 1    
    47   42   48 1    
    48   42   49 1    
    49   43   44 1    
    50   43   45 1    
    51   43   46 1    
@<TRIPOS>SUBSTRUCTURE
     1 ****        4 TEMP              0 ****  ****    0 ROOT 
@<TRIPOS>NORMAL
@<TRIPOS>FF_PBC
FORCE_FIELD_SETUP_FEATURE Force Field Setup information
v1.0  0 0.000000 0.000000 0.000000 0.000000 0.000000 0.000000 NONE 0 0 0 0 1 0 0 0 0 0 0 0 0
