@<TRIPOS>MOLECULE
MOL005826
   28    27     1     1     0
SMALL
GASTEIGER


@<TRIPOS>ATOM
      1 C           2.549156    0.221145   -0.000069 C.2       1 <1>        -0.076502 
      2 C           1.144284    0.812109    0.000058 C.3       1 <1>        -0.028571 
      3 C           2.908334   -1.077347   -0.000059 C.2       1 <1>        -0.088115 
      4 C           3.640805    1.278830   -0.000187 C.3       1 <1>        -0.043787 
      5 C          -0.136958   -0.065177   -0.000325 C.3       1 <1>        -0.030848 
      6 C           2.037056   -2.311474    0.000103 C.3       1 <1>        -0.046575 
      7 C          -1.399663    0.767762   -0.000082 C.2       1 <1>        -0.084989 
      8 C          -2.645641    0.266801    0.000022 C.2       1 <1>        -0.079608 
      9 C          -3.830491    1.207239    0.000300 C.3       1 <1>        -0.044049 
     10 C          -2.973116   -1.211323   -0.000109 C.3       1 <1>        -0.044049 
     11 H           1.077922    1.458692    0.890247 H         1 <1>         0.031285 
     12 H           1.077985    1.459249   -0.889734 H         1 <1>         0.031285 
     13 H           3.975071   -1.309689   -0.000160 H         1 <1>         0.056878 
     14 H           4.665113    0.876402   -0.000131 H         1 <1>         0.027436 
     15 H           3.536397    1.913418   -0.893095 H         1 <1>         0.027436 
     16 H           3.536382    1.913605    0.892589 H         1 <1>         0.027436 
     17 H          -0.158030   -0.687140   -0.906164 H         1 <1>         0.031044 
     18 H          -0.158086   -0.687798    0.905053 H         1 <1>         0.031044 
     19 H           2.663265   -3.217971   -0.000181 H         1 <1>         0.027178 
     20 H           1.414774   -2.356609    0.903445 H         1 <1>         0.027178 
     21 H           1.414149   -2.356504   -0.902806 H         1 <1>         0.027178 
     22 H          -1.295171    1.853969    0.000018 H         1 <1>         0.057155 
     23 H          -4.789873    0.667573   -0.000033 H         1 <1>         0.027427 
     24 H          -3.794984    1.845993    0.895916 H         1 <1>         0.027427 
     25 H          -3.794824    1.846790   -0.894743 H         1 <1>         0.027427 
     26 H          -2.093362   -1.868719   -0.000492 H         1 <1>         0.027427 
     27 H          -3.569254   -1.447250    0.894250 H         1 <1>         0.027427 
     28 H          -3.569791   -1.446991   -0.894178 H         1 <1>         0.027427 
@<TRIPOS>BOND
     1    1    2 1    
     2    1    3 2    
     3    1    4 1    
     4    2    5 1    
     5    2   11 1    
     6    2   12 1    
     7    3    6 1    
     8    3   13 1    
     9    4   14 1    
    10    4   15 1    
    11    4   16 1    
    12    5    7 1    
    13    5   17 1    
    14    5   18 1    
    15    6   19 1    
    16    6   20 1    
    17    6   21 1    
    18    7    8 2    
    19    7   22 1    
    20    8    9 1    
    21    8   10 1    
    22    9   23 1    
    23    9   24 1    
    24    9   25 1    
    25   10   26 1    
    26   10   27 1    
    27   10   28 1    
@<TRIPOS>SUBSTRUCTURE
     1 ****        1 TEMP              0 ****  ****    0 ROOT 
@<TRIPOS>NORMAL
@<TRIPOS>FF_PBC
FORCE_FIELD_SETUP_FEATURE Force Field Setup information
v1.0  0 0.000000 0.000000 0.000000 0.000000 0.000000 0.000000 NONE 0 0 0 0 1 0 0 0 0 0 0 0 0
