@<TRIPOS>MOLECULE
MOL012993
   83    86     1     1     0
SMALL
GASTEIGER


@<TRIPOS>ATOM
      1 O          -1.126080   -3.562937   -1.814547 O.3       1 <1>        -0.339095 
      2 O           3.833478   -1.546370    0.188945 O.2       1 <1>        -0.273534 
      3 O          -1.666523   -1.210642    0.021132 O.2       1 <1>        -0.273659 
      4 O           5.076029    1.927279    2.358776 O.2       1 <1>        -0.274087 
      5 O           0.955647    2.345794   -1.962966 O.2       1 <1>        -0.273436 
      6 N           1.798327   -2.278234   -0.201405 N.am      1 <1>        -0.285787 
      7 N          -0.033493   -0.108644   -1.080934 N.am      1 <1>        -0.302071 
      8 N           3.687824    0.343364    1.685661 N.am      1 <1>        -0.302463 
      9 N           1.657794    2.536414    2.414044 N.3       1 <1>        -0.297855 
     10 N          -0.435245    2.404646   -3.680734 N.am      1 <1>        -0.290407 
     11 C           0.348461   -2.346826   -0.013177 C.3       1 <1>         0.128710 
     12 C          -0.048318   -3.612338   -0.849607 C.3       1 <1>         0.093590 
     13 C           1.243823   -4.227068   -1.447166 C.3       1 <1>        -0.007985 
     14 C           2.394926   -3.243962   -1.121209 C.3       1 <1>         0.018040 
     15 C           2.650617   -1.451417    0.482095 C.2       1 <1>         0.236844 
     16 C           2.407707   -0.402840    1.583535 C.3       1 <1>         0.101910 
     17 C          -0.513541   -1.157471   -0.372043 C.2       1 <1>         0.236730 
     18 C           2.107556   -1.006492    3.001603 C.3       1 <1>        -0.019723 
     19 C          -0.864560    1.058377   -1.448556 C.3       1 <1>         0.103656 
     20 C           0.648858   -0.768819    3.492472 C.3       1 <1>        -0.060525 
     21 C           2.539404   -2.490769    3.154703 C.3       1 <1>        -0.060525 
     22 C          -1.252361   -2.600359   -2.818804 C.ar      1 <1>         0.076670 
     23 C           3.933183    1.493616    2.371695 C.2       1 <1>         0.230573 
     24 C          -2.379511    0.825664   -1.736501 C.3       1 <1>        -0.000647 
     25 C           2.921704    2.307676    3.162236 C.3       1 <1>         0.083912 
     26 C          -0.102884    1.950105   -2.431402 C.2       1 <1>         0.237427 
     27 C          -2.446347   -2.419634   -3.415871 C.ar      1 <1>        -0.031108 
     28 C          -0.115010   -1.745509   -3.227798 C.ar      1 <1>        -0.031108 
     29 C          -3.419816    0.889327   -0.598399 C.ar      1 <1>        -0.045141 
     30 C          -2.679273   -1.240533   -4.292807 C.ar      1 <1>        -0.052116 
     31 C          -0.315536   -0.665385   -3.977531 C.ar      1 <1>        -0.052116 
     32 C           3.551326    3.640223    3.669508 C.3       1 <1>        -0.040968 
     33 C          -1.678543   -0.340572   -4.445566 C.ar      1 <1>        -0.023697 
     34 C          -4.847218    0.883823   -1.010759 C.ar      1 <1>        -0.058501 
     35 C          -3.126386    0.931364    0.794230 C.ar      1 <1>        -0.058501 
     36 C          -1.919363    1.004371   -5.082492 C.2       1 <1>        -0.040693 
     37 C          -1.294771    2.134110   -4.709029 C.2       1 <1>        -0.003130 
     38 C           0.517572    3.062654    3.205237 C.3       1 <1>        -0.012342 
     39 C           1.808785    3.164721    1.080682 C.3       1 <1>        -0.012342 
     40 C          -5.882777    0.913540   -0.065324 C.ar      1 <1>        -0.061500 
     41 C          -4.222565    0.949026    1.793009 C.ar      1 <1>        -0.061500 
     42 C          -5.560305    0.944080    1.377865 C.ar      1 <1>        -0.061742 
     43 H           0.937111   -0.090576   -1.334689 H         1 <1>         0.149519 
     44 H           4.481093   -0.069360    1.225001 H         1 <1>         0.149508 
     45 H           0.126296    3.211700   -3.898395 H         1 <1>         0.154295 
     46 H           0.158211   -2.570310    1.041613 H         1 <1>         0.062298 
     47 H          -0.469375   -4.354616   -0.148464 H         1 <1>         0.062512 
     48 H           1.452597   -5.203582   -0.975881 H         1 <1>         0.030620 
     49 H           1.139888   -4.407360   -2.528638 H         1 <1>         0.030620 
     50 H           2.795579   -2.733023   -2.008819 H         1 <1>         0.046548 
     51 H           3.230836   -3.790724   -0.653387 H         1 <1>         0.046548 
     52 H           1.600769    0.269214    1.247077 H         1 <1>         0.059709 
     53 H           2.739261   -0.490092    3.741588 H         1 <1>         0.031802 
     54 H          -0.871109    1.718710   -0.570610 H         1 <1>         0.059780 
     55 H           0.540226   -1.087418    4.540005 H         1 <1>         0.023302 
     56 H           0.395777    0.298523    3.444065 H         1 <1>         0.023302 
     57 H          -0.096462   -1.313188    2.903125 H         1 <1>         0.023302 
     58 H           2.395049   -2.824782    4.194841 H         1 <1>         0.023302 
     59 H           3.608095   -2.588173    2.905367 H         1 <1>         0.023302 
     60 H           1.961708   -3.155383    2.499246 H         1 <1>         0.023302 
     61 H          -2.501338   -0.201999   -2.070251 H         1 <1>         0.033588 
     62 H          -2.714695    1.516382   -2.522829 H         1 <1>         0.033588 
     63 H           2.698733    1.748685    4.081929 H         1 <1>         0.055545 
     64 H          -3.266630   -3.097821   -3.208917 H         1 <1>         0.064346 
     65 H           0.885593   -1.989111   -2.934423 H         1 <1>         0.064346 
     66 H          -3.654110   -1.075680   -4.737214 H         1 <1>         0.062423 
     67 H           0.526163   -0.038136   -4.266917 H         1 <1>         0.062423 
     68 H           4.409748    3.428578    4.330873 H         1 <1>         0.024942 
     69 H           2.818128    4.223190    4.248844 H         1 <1>         0.024942 
     70 H           3.911034    4.253351    2.828738 H         1 <1>         0.024942 
     71 H          -5.103028    0.849249   -2.064569 H         1 <1>         0.062030 
     72 H          -2.108108    0.939511    1.165580 H         1 <1>         0.062030 
     73 H          -2.632494    1.022978   -5.906865 H         1 <1>         0.063587 
     74 H          -1.515915    2.968732   -5.384267 H         1 <1>         0.078217 
     75 H          -0.419940    2.750568    2.718265 H         1 <1>         0.039072 
     76 H           0.507637    2.669934    4.235905 H         1 <1>         0.039072 
     77 H           0.540651    4.163257    3.251740 H         1 <1>         0.039072 
     78 H           2.091429    4.224765    1.175483 H         1 <1>         0.039072 
     79 H           0.846260    3.106033    0.550794 H         1 <1>         0.039072 
     80 H           2.566089    2.644975    0.470221 H         1 <1>         0.039072 
     81 H          -6.917428    0.908989   -0.387113 H         1 <1>         0.061766 
     82 H          -3.985085    0.962581    2.850074 H         1 <1>         0.061766 
     83 H          -6.359223    0.957952    2.111137 H         1 <1>         0.061758 
@<TRIPOS>BOND
     1   12    1 1    
     2    1   22 1    
     3   15    2 2    
     4   17    3 2    
     5   23    4 2    
     6   26    5 2    
     7    6   11 1    
     8    6   14 1    
     9   15    6 1    
    10   17    7 1    
    11    7   19 1    
    12    7   43 1    
    13    8   16 1    
    14   23    8 1    
    15    8   44 1    
    16   25    9 1    
    17    9   38 1    
    18    9   39 1    
    19   26   10 1    
    20   10   37 1    
    21   10   45 1    
    22   11   12 1    
    23   11   17 1    
    24   11   46 1    
    25   13   12 1    
    26   12   47 1    
    27   14   13 1    
    28   13   48 1    
    29   13   49 1    
    30   14   50 1    
    31   14   51 1    
    32   16   15 1    
    33   16   18 1    
    34   16   52 1    
    35   18   20 1    
    36   18   21 1    
    37   18   53 1    
    38   19   24 1    
    39   19   26 1    
    40   19   54 1    
    41   20   55 1    
    42   20   56 1    
    43   20   57 1    
    44   21   58 1    
    45   21   59 1    
    46   21   60 1    
    47   22   27 2    
    48   22   28 1    
    49   23   25 1    
    50   24   29 1    
    51   24   61 1    
    52   24   62 1    
    53   25   32 1    
    54   25   63 1    
    55   27   30 1    
    56   27   64 1    
    57   28   31 2    
    58   28   65 1    
    59   29   34 1    
    60   29   35 2    
    61   30   33 2    
    62   30   66 1    
    63   31   33 1    
    64   31   67 1    
    65   32   68 1    
    66   32   69 1    
    67   32   70 1    
    68   33   36 1    
    69   34   40 2    
    70   34   71 1    
    71   35   41 1    
    72   35   72 1    
    73   36   37 2    
    74   36   73 1    
    75   37   74 1    
    76   38   75 1    
    77   38   76 1    
    78   38   77 1    
    79   39   78 1    
    80   39   79 1    
    81   39   80 1    
    82   40   42 1    
    83   40   81 1    
    84   41   42 2    
    85   41   82 1    
    86   42   83 1    
@<TRIPOS>SUBSTRUCTURE
     1 ****        6 TEMP              0 ****  ****    0 ROOT 
@<TRIPOS>NORMAL
@<TRIPOS>FF_PBC
FORCE_FIELD_SETUP_FEATURE Force Field Setup information
v1.0  0 0.000000 0.000000 0.000000 0.000000 0.000000 0.000000 NONE 0 0 0 0 1 0 0 0 0 0 0 0 0
