@<TRIPOS>MOLECULE
MOL011602
   11    11     1     1     0
SMALL
GASTEIGER


@<TRIPOS>ATOM
      1 N          -1.612155   -0.010478   -0.000023 N.ar      1 <1>        -0.263258 
      2 C           1.225547    0.030040   -0.000015 C.ar      1 <1>        -0.058899 
      3 C           0.521261    1.233001    0.000004 C.ar      1 <1>        -0.043595 
      4 C           0.461430   -1.239146   -0.000034 C.ar      1 <1>        -0.043595 
      5 C          -0.959966    1.188129   -0.000018 C.ar      1 <1>         0.027551 
      6 C          -0.937895   -1.200144   -0.000027 C.ar      1 <1>         0.027551 
      7 H           2.310821    0.020523   -0.000012 H         1 <1>         0.061850 
      8 H           1.043851    2.183928    0.000034 H         1 <1>         0.063265 
      9 H           0.984972   -2.189631   -0.000051 H         1 <1>         0.063265 
     10 H          -1.532869    2.108982   -0.000031 H         1 <1>         0.082933 
     11 H          -1.505098   -2.125004   -0.000025 H         1 <1>         0.082933 
@<TRIPOS>BOND
     1    5    1 2    
     2    1    6 1    
     3    3    2 2    
     4    2    4 1    
     5    2    7 1    
     6    3    5 1    
     7    3    8 1    
     8    4    6 2    
     9    4    9 1    
    10    5   10 1    
    11    6   11 1    
@<TRIPOS>SUBSTRUCTURE
     1 ****        2 TEMP              0 ****  ****    0 ROOT 
@<TRIPOS>NORMAL
@<TRIPOS>FF_PBC
FORCE_FIELD_SETUP_FEATURE Force Field Setup information
v1.0  0 0.000000 0.000000 0.000000 0.000000 0.000000 0.000000 NONE 0 0 0 0 1 0 0 0 0 0 0 0 0
