@<TRIPOS>MOLECULE
MOL005964
   39    41     1     1     0
SMALL
GASTEIGER


@<TRIPOS>ATOM
      1 C           0.142615   -0.382496   -0.083328 C.3       1 <1>         0.000659 
      2 C          -0.233361   -0.477242   -1.597246 C.3       1 <1>        -0.037444 
      3 C          -1.447823    0.443094   -1.346800 C.3       1 <1>        -0.030426 
      4 C          -0.874822    0.793950    0.055198 C.3       1 <1>        -0.025985 
      5 C          -0.037959    2.101702    0.187109 C.3       1 <1>        -0.048390 
      6 C           1.413790    1.702867   -0.160532 C.3       1 <1>        -0.046520 
      7 C           1.540155    0.211355    0.266911 C.3       1 <1>        -0.022440 
      8 C           1.829941    0.040573    1.803981 C.3       1 <1>        -0.046528 
      9 C           0.578082   -0.091502    2.716936 C.3       1 <1>        -0.048834 
     10 C          -0.287484   -1.305426    2.279826 C.3       1 <1>        -0.031424 
     11 C          -0.143427   -1.587321    0.799536 C.2       1 <1>        -0.069634 
     12 C           2.700519   -0.481389   -0.511896 C.3       1 <1>        -0.058753 
     13 C          -2.763493   -0.378934   -1.214744 C.3       1 <1>        -0.059505 
     14 C          -1.618495    1.588128   -2.384410 C.3       1 <1>        -0.059505 
     15 C          -0.233812   -2.851673    0.358587 C.2       1 <1>        -0.098892 
     16 H          -1.635211    0.705188    0.847053 H         1 <1>         0.031454 
     17 H           0.480118   -0.003349   -2.282442 H         1 <1>         0.027917 
     18 H          -0.530185   -1.445399   -2.017699 H         1 <1>         0.027917 
     19 H          -0.054102    2.472178    1.221139 H         1 <1>         0.026855 
     20 H          -0.413966    2.936031   -0.421917 H         1 <1>         0.026855 
     21 H           1.545501    1.811743   -1.247533 H         1 <1>         0.027087 
     22 H           2.160483    2.355198    0.319234 H         1 <1>         0.027087 
     23 H           2.386788   -0.896557    1.971493 H         1 <1>         0.027088 
     24 H           2.471258    0.859321    2.167121 H         1 <1>         0.027088 
     25 H           0.898545   -0.224984    3.765083 H         1 <1>         0.026847 
     26 H          -0.023433    0.822629    2.709083 H         1 <1>         0.026847 
     27 H           0.058449   -2.186140    2.846746 H         1 <1>         0.031008 
     28 H          -1.346984   -1.142882    2.534466 H         1 <1>         0.031008 
     29 H           2.657990   -0.320922   -1.597378 H         1 <1>         0.023534 
     30 H           3.665558   -0.085894   -0.159762 H         1 <1>         0.023534 
     31 H           2.677569   -1.567666   -0.334780 H         1 <1>         0.023534 
     32 H          -3.577427    0.277641   -0.871816 H         1 <1>         0.023508 
     33 H          -3.045389   -0.806910   -2.188779 H         1 <1>         0.023508 
     34 H          -2.655944   -1.204855   -0.494618 H         1 <1>         0.023508 
     35 H          -2.356997    2.315149   -2.014451 H         1 <1>         0.023508 
     36 H          -1.983918    1.169901   -3.334439 H         1 <1>         0.023508 
     37 H          -0.675891    2.112481   -2.597372 H         1 <1>         0.023508 
     38 H          -0.096669   -3.161886   -0.672898 H         1 <1>         0.053458 
     39 H          -0.449859   -3.666649    1.049200 H         1 <1>         0.053458 
@<TRIPOS>BOND
     1    1    2 1    
     2    1    4 1    
     3    1    7 1    
     4    1   11 1    
     5    2    3 1    
     6    2   17 1    
     7    2   18 1    
     8    3    4 1    
     9    3   13 1    
    10    3   14 1    
    11    4    5 1    
    12    4   16 1    
    13    5    6 1    
    14    5   19 1    
    15    5   20 1    
    16    6    7 1    
    17    6   21 1    
    18    6   22 1    
    19    7    8 1    
    20    7   12 1    
    21    8    9 1    
    22    8   23 1    
    23    8   24 1    
    24    9   10 1    
    25    9   25 1    
    26    9   26 1    
    27   10   11 1    
    28   10   27 1    
    29   10   28 1    
    30   11   15 2    
    31   12   29 1    
    32   12   30 1    
    33   12   31 1    
    34   13   32 1    
    35   13   33 1    
    36   13   34 1    
    37   14   35 1    
    38   14   36 1    
    39   14   37 1    
    40   15   38 1    
    41   15   39 1    
@<TRIPOS>SUBSTRUCTURE
     1 ****        1 TEMP              0 ****  ****    0 ROOT 
@<TRIPOS>NORMAL
@<TRIPOS>FF_PBC
FORCE_FIELD_SETUP_FEATURE Force Field Setup information
v1.0  0 0.000000 0.000000 0.000000 0.000000 0.000000 0.000000 NONE 0 0 0 0 1 0 0 0 0 0 0 0 0
