@<TRIPOS>MOLECULE
MOL003493
   18    19     1     1     0
SMALL
GASTEIGER


@<TRIPOS>ATOM
      1 C           0.038942    0.332276   -0.661483 C.ar      1 <1>        -0.017883 
      2 C          -0.011097   -0.323323    0.666988 C.ar      1 <1>        -0.017883 
      3 C           1.212893    1.014388   -1.066117 C.ar      1 <1>        -0.054030 
      4 C          -1.149295    0.260055   -1.545716 C.ar      1 <1>        -0.054030 
      5 C           1.115340   -0.263918    1.524211 C.ar      1 <1>        -0.054030 
      6 C          -1.247969   -1.032837    1.074103 C.ar      1 <1>        -0.054030 
      7 C           2.386965    1.071682   -0.163005 C.ar      1 <1>        -0.061167 
      8 C          -2.303894   -0.422783   -1.122763 C.ar      1 <1>        -0.061167 
      9 C           2.339668    0.451886    1.092943 C.ar      1 <1>        -0.061167 
     10 C          -2.353933   -1.078740    0.206427 C.ar      1 <1>        -0.061167 
     11 H           1.259392    1.497373   -2.036411 H         1 <1>         0.062362 
     12 H          -1.130476    0.734230   -2.521652 H         1 <1>         0.062362 
     13 H           1.088605   -0.740520    2.498398 H         1 <1>         0.062362 
     14 H          -1.302381   -1.518465    2.043045 H         1 <1>         0.062362 
     15 H           3.283874    1.595576   -0.477939 H         1 <1>         0.061776 
     16 H          -3.170161   -0.471839   -1.774945 H         1 <1>         0.061776 
     17 H           3.199835    0.494363    1.753547 H         1 <1>         0.061776 
     18 H          -3.256208   -1.599801    0.510668 H         1 <1>         0.061776 
@<TRIPOS>BOND
     1    1    2 1    
     2    1    3 2    
     3    1    4 1    
     4    2    5 2    
     5    2    6 1    
     6    3    7 1    
     7    3   11 1    
     8    4    8 2    
     9    4   12 1    
    10    5    9 1    
    11    5   13 1    
    12    6   10 2    
    13    6   14 1    
    14    7    9 2    
    15    7   15 1    
    16    8   10 1    
    17    8   16 1    
    18    9   17 1    
    19   10   18 1    
@<TRIPOS>SUBSTRUCTURE
     1 ****        1 TEMP              0 ****  ****    0 ROOT 
@<TRIPOS>NORMAL
@<TRIPOS>FF_PBC
FORCE_FIELD_SETUP_FEATURE Force Field Setup information
v1.0  0 0.000000 0.000000 0.000000 0.000000 0.000000 0.000000 NONE 0 0 0 0 1 0 0 0 0 0 0 0 0
