@<TRIPOS>MOLECULE
MOL000254
   24    24     1     1     0
SMALL
GASTEIGER


@<TRIPOS>ATOM
      1 C           0.280448    1.420319   -0.785871 C.ar      1 <1>         0.105669 
      2 C           0.918093    0.211559   -0.215327 C.ar      1 <1>        -0.025681 
      3 C          -1.130626    1.594078   -0.694927 C.ar      1 <1>         0.102452 
      4 O           1.077641    2.380392   -1.412375 O.3       1 <1>        -0.345341 
      5 C           0.136156   -0.776413    0.429120 C.ar      1 <1>        -0.041049 
      6 C          -1.946624    0.553021   -0.019061 C.ar      1 <1>        -0.029131 
      7 O          -1.730859    2.734757   -1.238334 O.3       1 <1>        -0.357269 
      8 C           1.284967    3.570585   -0.635159 C.3       1 <1>         0.043136 
      9 C          -1.332212   -0.592837    0.524223 C.ar      1 <1>        -0.055686 
     10 C           0.772765   -2.033645    1.029978 C.3       1 <1>        -0.009646 
     11 C           0.393299   -3.210958    0.166835 C.2       1 <1>        -0.086800 
     12 C          -0.330064   -4.245456    0.613155 C.2       1 <1>        -0.102320 
     13 H           1.992849    0.098198   -0.300628 H         1 <1>         0.064693 
     14 H          -3.022238    0.669956    0.059876 H         1 <1>         0.064412 
     15 H          -2.679530    2.727720   -1.188644 H         1 <1>         0.217422 
     16 H           1.933451    4.247713   -1.210195 H         1 <1>         0.052871 
     17 H           0.335261    4.086869   -0.427579 H         1 <1>         0.052871 
     18 H           1.782823    3.327683    0.316472 H         1 <1>         0.052871 
     19 H          -1.936717   -1.348662    1.015597 H         1 <1>         0.062119 
     20 H           0.413730   -2.143305    2.065140 H         1 <1>         0.035544 
     21 H           1.870104   -1.950982    1.060927 H         1 <1>         0.035544 
     22 H           0.729000   -3.206890   -0.871895 H         1 <1>         0.056955 
     23 H          -0.579784   -5.073478   -0.050807 H         1 <1>         0.053184 
     24 H          -0.688829   -4.293480    1.640936 H         1 <1>         0.053184 
@<TRIPOS>BOND
     1    1    2 1    
     2    1    3 2    
     3    1    4 1    
     4    2    5 2    
     5    2   13 1    
     6    3    6 1    
     7    3    7 1    
     8    4    8 1    
     9    5    9 1    
    10    5   10 1    
    11    6    9 2    
    12    6   14 1    
    13    7   15 1    
    14    8   16 1    
    15    8   17 1    
    16    8   18 1    
    17    9   19 1    
    18   10   11 1    
    19   10   20 1    
    20   10   21 1    
    21   11   12 2    
    22   11   22 1    
    23   12   23 1    
    24   12   24 1    
@<TRIPOS>SUBSTRUCTURE
     1 ****        1 TEMP              0 ****  ****    0 ROOT 
@<TRIPOS>NORMAL
@<TRIPOS>FF_PBC
FORCE_FIELD_SETUP_FEATURE Force Field Setup information
v1.0  0 0.000000 0.000000 0.000000 0.000000 0.000000 0.000000 NONE 0 0 0 0 1 0 0 0 0 0 0 0 0
