@<TRIPOS>MOLECULE
MOL013439
   51    52     1     1     0
SMALL
GASTEIGER


@<TRIPOS>ATOM
      1 O          -3.961223   -4.903771   -2.452465 O.3       1 <1>        -0.357269 
      2 C          -3.655083   -3.582169   -2.103192 C.ar      1 <1>         0.102453 
      3 C          -2.630261   -3.317965   -1.061298 C.ar      1 <1>         0.105742 
      4 C          -2.311102   -1.980342   -0.715342 C.ar      1 <1>        -0.023445 
      5 C          -3.001590   -0.832209   -1.362257 C.ar      1 <1>        -0.013993 
      6 C          -3.973885   -1.105964   -2.348760 C.ar      1 <1>        -0.053448 
      7 C          -4.307145   -2.497027   -2.729204 C.ar      1 <1>        -0.029059 
      8 O          -2.001396   -4.412499   -0.446087 O.3       1 <1>        -0.345340 
      9 C          -1.129741   -4.272157    0.688040 C.3       1 <1>         0.043136 
     10 C          -2.731822    0.651313   -1.033851 C.3       1 <1>         0.108968 
     11 C          -1.610416    0.951320    0.007878 C.3       1 <1>         0.118121 
     12 C          -2.041101    0.548401    1.450498 C.3       1 <1>         0.073654 
     13 O          -0.371266    0.353603   -0.425754 O.3       1 <1>        -0.333734 
     14 C           0.890943    0.671945    0.108832 C.ar      1 <1>         0.106635 
     15 C           2.119350    0.015380   -0.427692 C.ar      1 <1>         0.106236 
     16 C           3.368523    0.311517    0.138026 C.ar      1 <1>        -0.022002 
     17 C           3.518577    1.273837    1.255155 C.ar      1 <1>        -0.022655 
     18 C           2.368277    1.905957    1.750741 C.ar      1 <1>        -0.052001 
     19 C           1.039574    1.619654    1.160957 C.ar      1 <1>        -0.028564 
     20 O           2.089699   -0.892932   -1.498563 O.3       1 <1>        -0.345323 
     21 C           0.958324   -1.008709   -2.376574 C.3       1 <1>         0.043136 
     22 C           4.903262    1.513733    1.822897 C.2       1 <1>        -0.056303 
     23 C           5.399359    2.689643    2.237725 C.2       1 <1>        -0.058388 
     24 C           4.711285    4.029607    2.172949 C.3       1 <1>         0.062691 
     25 O           5.721213    5.040081    2.001073 O.3       1 <1>        -0.390992 
     26 O          -2.676292    1.678169    2.080700 O.3       1 <1>        -0.392340 
     27 O          -2.427743    1.256720   -2.307629 O.3       1 <1>        -0.384504 
     28 H          -4.556094   -4.991134   -3.188458 H         1 <1>         0.217422 
     29 H          -1.552311   -1.789803    0.027359 H         1 <1>         0.064767 
     30 H          -4.491633   -0.290094   -2.842471 H         1 <1>         0.062192 
     31 H          -5.057310   -2.671349   -3.493778 H         1 <1>         0.064413 
     32 H          -0.841425   -5.281891    1.014436 H         1 <1>         0.052871 
     33 H          -1.646484   -3.772839    1.522364 H         1 <1>         0.052871 
     34 H          -0.212661   -3.724990    0.420716 H         1 <1>         0.052871 
     35 H          -3.679890    1.071594   -0.652967 H         1 <1>         0.067050 
     36 H          -1.472931    2.043139   -0.020903 H         1 <1>         0.065358 
     37 H          -2.748095   -0.297491    1.439806 H         1 <1>         0.058395 
     38 H          -1.160047    0.237718    2.035758 H         1 <1>         0.058395 
     39 H           4.248364   -0.179406   -0.261432 H         1 <1>         0.065001 
     40 H           2.431458    2.598445    2.581524 H         1 <1>         0.062425 
     41 H           0.194659    2.156777    1.571321 H         1 <1>         0.064429 
     42 H           1.256196   -1.644346   -3.221978 H         1 <1>         0.052871 
     43 H           0.115488   -1.500049   -1.874265 H         1 <1>         0.052871 
     44 H           0.651869   -0.026421   -2.768193 H         1 <1>         0.052871 
     45 H           5.544454    0.633015    1.888696 H         1 <1>         0.062105 
     46 H           6.406534    2.696427    2.660742 H         1 <1>         0.059478 
     47 H           4.176496    4.204585    3.121668 H         1 <1>         0.060128 
     48 H           4.003731    4.067917    1.328207 H         1 <1>         0.060128 
     49 H           5.368653    5.925078    1.981317 H         1 <1>         0.209823 
     50 H          -2.939931    1.514545    2.982279 H         1 <1>         0.209508 
     51 H          -2.328521    2.202557   -2.274699 H         1 <1>         0.210345 
@<TRIPOS>BOND
     1    1    2 1    
     2    1   28 1    
     3    2    3 1    
     4    2    7 2    
     5    3    4 2    
     6    3    8 1    
     7    4    5 1    
     8    4   29 1    
     9    5    6 2    
    10    5   10 1    
    11    6    7 1    
    12    6   30 1    
    13    7   31 1    
    14    8    9 1    
    15    9   32 1    
    16    9   33 1    
    17    9   34 1    
    18   10   11 1    
    19   10   27 1    
    20   10   35 1    
    21   11   12 1    
    22   11   13 1    
    23   11   36 1    
    24   12   26 1    
    25   12   37 1    
    26   12   38 1    
    27   13   14 1    
    28   14   15 1    
    29   14   19 2    
    30   15   16 2    
    31   15   20 1    
    32   16   17 1    
    33   16   39 1    
    34   17   18 2    
    35   17   22 1    
    36   18   19 1    
    37   18   40 1    
    38   19   41 1    
    39   20   21 1    
    40   21   42 1    
    41   21   43 1    
    42   21   44 1    
    43   22   23 2    
    44   22   45 1    
    45   23   24 1    
    46   23   46 1    
    47   24   25 1    
    48   24   47 1    
    49   24   48 1    
    50   25   49 1    
    51   26   50 1    
    52   27   51 1    
@<TRIPOS>SUBSTRUCTURE
     1 ****        1 TEMP              0 ****  ****    0 ROOT 
@<TRIPOS>NORMAL
@<TRIPOS>FF_PBC
FORCE_FIELD_SETUP_FEATURE Force Field Setup information
v1.0  0 0.000000 0.000000 0.000000 0.000000 0.000000 0.000000 NONE 0 0 0 0 1 0 0 0 0 0 0 0 0
