@<TRIPOS>MOLECULE
MOL004851
   42    44     1     1     0
SMALL
GASTEIGER


@<TRIPOS>ATOM
      1 C          -1.834071    0.354135   -0.287161 C.ar      1 <1>         0.078535 
      2 C          -0.845787   -0.757553   -0.353125 C.ar      1 <1>        -0.000420 
      3 C           0.512067   -0.523266   -0.127929 C.ar      1 <1>         0.096332 
      4 C           0.957997    0.847390    0.174807 C.ar      1 <1>         0.052600 
      5 C           0.038239    1.902437    0.283664 C.ar      1 <1>        -0.042511 
      6 C          -1.408591    1.657541    0.044176 C.ar      1 <1>        -0.013101 
      7 C          -2.369736    2.859523    0.148973 C.3       1 <1>        -0.006789 
      8 C          -3.801879    2.583960    0.546931 C.2       1 <1>        -0.080898 
      9 C          -4.835402    3.386923    0.220803 C.2       1 <1>        -0.079307 
     10 C          -6.259931    3.021253    0.568951 C.3       1 <1>        -0.044040 
     11 C          -4.660023    4.699014   -0.513443 C.3       1 <1>        -0.044040 
     12 O          -3.181235    0.112464   -0.563552 O.3       1 <1>        -0.359468 
     13 C           2.444646    1.015108    0.348208 C.2       1 <1>         0.191037 
     14 C           3.266861   -0.199030    0.282274 C.2       1 <1>         0.016832 
     15 C           2.757471   -1.415184    0.019596 C.2       1 <1>         0.093862 
     16 O           1.434238   -1.577521   -0.186862 O.3       1 <1>        -0.307796 
     17 C           3.612263   -2.672198   -0.053978 C.ar      1 <1>         0.005751 
     18 C           2.935655   -3.999086   -0.071043 C.ar      1 <1>        -0.049682 
     19 C           3.671036   -5.191480   -0.110292 C.ar      1 <1>        -0.031304 
     20 C           5.149706   -5.165471   -0.133466 C.ar      1 <1>         0.072619 
     21 C           5.021895   -2.663492   -0.111057 C.ar      1 <1>        -0.049682 
     22 C           5.802085   -3.925552   -0.140891 C.ar      1 <1>        -0.031304 
     23 O           5.857940   -6.370655   -0.148160 O.3       1 <1>        -0.359832 
     24 O           2.944592    2.112137    0.530815 O.2       1 <1>        -0.287105 
     25 H          -1.165275   -1.768067   -0.578066 H         1 <1>         0.066954 
     26 H           0.391475    2.900145    0.531072 H         1 <1>         0.062902 
     27 H          -2.332846    3.332302   -0.843987 H         1 <1>         0.035640 
     28 H          -1.978291    3.564693    0.898263 H         1 <1>         0.035640 
     29 H          -3.993831    1.682942    1.131020 H         1 <1>         0.057472 
     30 H          -6.351320    2.016403    1.008392 H         1 <1>         0.027427 
     31 H          -6.875549    3.053609   -0.342911 H         1 <1>         0.027427 
     32 H          -6.659270    3.751378    1.286916 H         1 <1>         0.027427 
     33 H          -5.448374    5.409504   -0.226002 H         1 <1>         0.027427 
     34 H          -3.701491    5.186909   -0.283653 H         1 <1>         0.027427 
     35 H          -4.726732    4.533296   -1.599029 H         1 <1>         0.027427 
     36 H          -3.391884   -0.803394   -0.703052 H         1 <1>         0.217326 
     37 H           4.318261   -0.010445    0.472344 H         1 <1>         0.068218 
     38 H           1.853376   -4.056675   -0.054572 H         1 <1>         0.062503 
     39 H           3.159780   -6.148290   -0.123919 H         1 <1>         0.064339 
     40 H           5.585049   -1.740314   -0.135032 H         1 <1>         0.062503 
     41 H           6.887057   -3.880879   -0.164554 H         1 <1>         0.064339 
     42 H           6.798567   -6.272858   -0.064372 H         1 <1>         0.217313 
@<TRIPOS>BOND
     1    1    2 1    
     2    1    6 2    
     3    1   12 1    
     4    2    3 2    
     5    2   25 1    
     6    3    4 1    
     7    3   16 1    
     8    4    5 2    
     9    4   13 1    
    10    5    6 1    
    11    5   26 1    
    12    6    7 1    
    13    7    8 1    
    14    7   27 1    
    15    7   28 1    
    16    8    9 2    
    17    8   29 1    
    18    9   10 1    
    19    9   11 1    
    20   10   30 1    
    21   10   31 1    
    22   10   32 1    
    23   11   33 1    
    24   11   34 1    
    25   11   35 1    
    26   12   36 1    
    27   13   14 1    
    28   13   24 2    
    29   14   15 2    
    30   14   37 1    
    31   15   16 1    
    32   15   17 1    
    33   17   18 1    
    34   17   21 2    
    35   18   19 2    
    36   18   38 1    
    37   19   20 1    
    38   19   39 1    
    39   20   22 2    
    40   20   23 1    
    41   21   22 1    
    42   21   40 1    
    43   22   41 1    
    44   23   42 1    
@<TRIPOS>SUBSTRUCTURE
     1 ****        1 TEMP              0 ****  ****    0 ROOT 
@<TRIPOS>NORMAL
@<TRIPOS>FF_PBC
FORCE_FIELD_SETUP_FEATURE Force Field Setup information
v1.0  0 0.000000 0.000000 0.000000 0.000000 0.000000 0.000000 NONE 0 0 0 0 1 0 0 0 0 0 0 0 0
