@<TRIPOS>MOLECULE
MOL004589
   26    25     1     1     0
SMALL
GASTEIGER


@<TRIPOS>ATOM
      1 C           0.043218   -1.080107    0.080365 C.3       1 <1>        -0.050709 
      2 C          -1.273136   -1.911947    0.156337 C.3       1 <1>        -0.046721 
      3 C          -0.183704    0.457831    0.099878 C.3       1 <1>        -0.052832 
      4 C           1.164713    1.225205    0.189631 C.3       1 <1>        -0.053298 
      5 C           0.944856    2.762759    0.200902 C.3       1 <1>        -0.055911 
      6 C          -2.208375   -1.655266   -1.058696 C.3       1 <1>        -0.062665 
      7 C          -0.933127   -3.426939    0.243550 C.3       1 <1>        -0.062665 
      8 C           2.292972    3.524064    0.295011 C.3       1 <1>        -0.065276 
      9 H           0.667658   -1.344013    0.949765 H         1 <1>         0.026777 
     10 H           0.599526   -1.352991   -0.831059 H         1 <1>         0.026777 
     11 H          -1.815708   -1.633927    1.077377 H         1 <1>         0.029548 
     12 H          -0.699746    0.776568   -0.819123 H         1 <1>         0.026537 
     13 H          -0.812595    0.724393    0.965009 H         1 <1>         0.026537 
     14 H           1.694146    0.931219    1.110900 H         1 <1>         0.026520 
     15 H           1.795958    0.953847   -0.672664 H         1 <1>         0.026520 
     16 H           0.422445    3.068871   -0.720850 H         1 <1>         0.026265 
     17 H           0.314436    3.039024    1.062601 H         1 <1>         0.026265 
     18 H          -3.081328   -2.325080   -1.017549 H         1 <1>         0.023233 
     19 H          -2.586425   -0.622545   -1.062577 H         1 <1>         0.023233 
     20 H          -1.671315   -1.840822   -2.001440 H         1 <1>         0.023233 
     21 H          -1.851906   -4.026541    0.338472 H         1 <1>         0.023233 
     22 H          -0.299965   -3.633624    1.120500 H         1 <1>         0.023233 
     23 H          -0.395731   -3.751778   -0.660704 H         1 <1>         0.023233 
     24 H           2.114912    4.611096    0.302681 H         1 <1>         0.022978 
     25 H           2.825629    3.250352    1.219142 H         1 <1>         0.022978 
     26 H           2.932890    3.280247   -0.567357 H         1 <1>         0.022978 
@<TRIPOS>BOND
     1    1    2 1    
     2    1    3 1    
     3    1    9 1    
     4    1   10 1    
     5    2    6 1    
     6    2    7 1    
     7    2   11 1    
     8    3    4 1    
     9    3   12 1    
    10    3   13 1    
    11    4    5 1    
    12    4   14 1    
    13    4   15 1    
    14    5    8 1    
    15    5   16 1    
    16    5   17 1    
    17    6   18 1    
    18    6   19 1    
    19    6   20 1    
    20    7   21 1    
    21    7   22 1    
    22    7   23 1    
    23    8   24 1    
    24    8   25 1    
    25    8   26 1    
@<TRIPOS>SUBSTRUCTURE
     1 ****        1 TEMP              0 ****  ****    0 ROOT 
@<TRIPOS>NORMAL
@<TRIPOS>FF_PBC
FORCE_FIELD_SETUP_FEATURE Force Field Setup information
v1.0  0 0.000000 0.000000 0.000000 0.000000 0.000000 0.000000 NONE 0 0 0 0 1 0 0 0 0 0 0 0 0
