@<TRIPOS>MOLECULE
MOL002168
   22    22     1     1     0
SMALL
GASTEIGER


@<TRIPOS>ATOM
      1 C           0.107209   -0.747434    0.199262 C.ar      1 <1>        -0.025087 
      2 C           0.833535   -2.002981    0.535206 C.ar      1 <1>        -0.054594 
      3 C          -1.333161   -0.808669    0.213181 C.ar      1 <1>        -0.054594 
      4 C           0.968497    0.465105   -0.122588 C.2       1 <1>        -0.055874 
      5 C           0.149972   -3.192845    0.851307 C.ar      1 <1>        -0.061202 
      6 C          -2.043026   -2.067065    0.547540 C.ar      1 <1>        -0.061202 
      7 C           0.651061    1.730331   -0.460176 C.2       1 <1>        -0.075150 
      8 C          -1.329036   -3.224808    0.857395 C.ar      1 <1>        -0.061723 
      9 C           1.747795    2.745809   -0.729182 C.3       1 <1>        -0.043738 
     10 C          -0.749754    2.277737   -0.608050 C.3       1 <1>        -0.043738 
     11 H           1.918545   -2.019863    0.541500 H         1 <1>         0.062344 
     12 H          -1.949899    0.042881   -0.014917 H         1 <1>         0.062344 
     13 H           2.034727    0.250862   -0.063959 H         1 <1>         0.062285 
     14 H           0.706945   -4.092923    1.092189 H         1 <1>         0.061776 
     15 H          -3.128546   -2.086610    0.550971 H         1 <1>         0.061776 
     16 H          -1.851900   -4.144176    1.101663 H         1 <1>         0.061759 
     17 H           2.769336    2.350879   -0.622390 H         1 <1>         0.027436 
     18 H           1.644040    3.127074   -1.756485 H         1 <1>         0.027436 
     19 H           1.641465    3.587710   -0.028199 H         1 <1>         0.027436 
     20 H          -0.741989    3.341506   -0.891234 H         1 <1>         0.027436 
     21 H          -1.283720    1.740464   -1.405260 H         1 <1>         0.027436 
     22 H          -1.286427    2.207546    0.349229 H         1 <1>         0.027436 
@<TRIPOS>BOND
     1    1    2 1    
     2    1    3 2    
     3    1    4 1    
     4    2    5 2    
     5    2   11 1    
     6    3    6 1    
     7    3   12 1    
     8    4    7 2    
     9    4   13 1    
    10    5    8 1    
    11    5   14 1    
    12    6    8 2    
    13    6   15 1    
    14    7    9 1    
    15    7   10 1    
    16    8   16 1    
    17    9   17 1    
    18    9   18 1    
    19    9   19 1    
    20   10   20 1    
    21   10   21 1    
    22   10   22 1    
@<TRIPOS>SUBSTRUCTURE
     1 ****        1 TEMP              0 ****  ****    0 ROOT 
@<TRIPOS>NORMAL
@<TRIPOS>FF_PBC
FORCE_FIELD_SETUP_FEATURE Force Field Setup information
v1.0  0 0.000000 0.000000 0.000000 0.000000 0.000000 0.000000 NONE 0 0 0 0 1 0 0 0 0 0 0 0 0
