@<TRIPOS>MOLECULE
MOL004711
   24    24     1     1     0
SMALL
GASTEIGER


@<TRIPOS>ATOM
      1 C           2.352202    1.912059   -1.499026 C.3       1 <1>         0.043135 
      2 O           2.013589    1.626251   -0.132292 O.3       1 <1>        -0.345341 
      3 C           1.157314    0.535497    0.034707 C.ar      1 <1>         0.105669 
      4 C           1.686257   -0.719753    0.615186 C.ar      1 <1>        -0.028819 
      5 C           0.844876   -1.836348    0.790093 C.ar      1 <1>        -0.053798 
      6 C          -0.584218   -1.765977    0.394552 C.ar      1 <1>        -0.019588 
      7 C          -1.507493   -2.974670    0.579191 C.3       1 <1>         0.069313 
      8 O          -2.788180   -2.521136    1.053146 O.3       1 <1>        -0.390415 
      9 C          -1.093132   -0.566362   -0.158259 C.ar      1 <1>        -0.023794 
     10 C          -0.215735    0.612409   -0.342303 C.ar      1 <1>         0.105980 
     11 O          -0.748354    1.783855   -0.885150 O.3       1 <1>        -0.345332 
     12 C          -0.910272    2.851618    0.062374 C.3       1 <1>         0.043136 
     13 H           3.041840    2.768701   -1.509271 H         1 <1>         0.052871 
     14 H           1.462731    2.172454   -2.092495 H         1 <1>         0.052871 
     15 H           2.855820    1.047729   -1.959180 H         1 <1>         0.052871 
     16 H           2.730509   -0.770364    0.904038 H         1 <1>         0.064420 
     17 H           1.248283   -2.749456    1.215595 H         1 <1>         0.062182 
     18 H          -1.065914   -3.679164    1.303426 H         1 <1>         0.060711 
     19 H          -1.605003   -3.477559   -0.397009 H         1 <1>         0.060711 
     20 H          -3.414280   -3.228928    1.174396 H         1 <1>         0.209847 
     21 H          -2.134181   -0.497958   -0.453534 H         1 <1>         0.064757 
     22 H          -1.347802    3.713098   -0.462883 H         1 <1>         0.052871 
     23 H          -1.592493    2.547298    0.871410 H         1 <1>         0.052871 
     24 H           0.053559    3.158973    0.496087 H         1 <1>         0.052871 
@<TRIPOS>BOND
     1    1    2 1    
     2    1   13 1    
     3    1   14 1    
     4    1   15 1    
     5    2    3 1    
     6    3    4 1    
     7    3   10 2    
     8    4    5 2    
     9    4   16 1    
    10    5    6 1    
    11    5   17 1    
    12    6    7 1    
    13    6    9 2    
    14    7    8 1    
    15    7   18 1    
    16    7   19 1    
    17    8   20 1    
    18    9   10 1    
    19    9   21 1    
    20   10   11 1    
    21   11   12 1    
    22   12   22 1    
    23   12   23 1    
    24   12   24 1    
@<TRIPOS>SUBSTRUCTURE
     1 ****        1 TEMP              0 ****  ****    0 ROOT 
@<TRIPOS>NORMAL
@<TRIPOS>FF_PBC
FORCE_FIELD_SETUP_FEATURE Force Field Setup information
v1.0  0 0.000000 0.000000 0.000000 0.000000 0.000000 0.000000 NONE 0 0 0 0 1 0 0 0 0 0 0 0 0
