@<TRIPOS>MOLECULE
MOL004860
   85    91     1     1     0
SMALL
GASTEIGER


@<TRIPOS>ATOM
      1 O           3.941437    1.273425   -0.326817 O.3       1 <1>        -0.337746 
      2 O           3.268414    2.399541    1.513016 O.3       1 <1>        -0.345676 
      3 O           4.924515   -2.201352    0.469285 O.3       1 <1>        -0.340158 
      4 O           1.256718    4.974993   -0.045163 O.3       1 <1>        -0.381218 
      5 O           3.248604    3.351100   -1.960482 O.3       1 <1>        -0.383740 
      6 O           6.943810    1.421677   -0.348992 O.3       1 <1>        -0.386391 
      7 O           3.107973   -1.068396    1.250745 O.3       1 <1>        -0.312541 
      8 O           8.168770   -1.120149   -0.965813 O.3       1 <1>        -0.386488 
      9 O          -0.346677    2.633288    0.251786 O.3       1 <1>        -0.308226 
     10 O           6.050931   -4.745732   -0.378647 O.3       1 <1>        -0.392366 
     11 O          -3.327814   -1.362946    0.655893 O.3       1 <1>        -0.335670 
     12 O          -1.188488    1.310732   -1.360551 O.2       1 <1>        -0.258984 
     13 O          -4.414798   -2.613979   -3.035778 O.2       1 <1>        -0.291871 
     14 O          -7.943660   -1.249777    2.281277 O.3       1 <1>        -0.359749 
     15 N          -4.300511    2.136015    1.951947 N.ar      1 <1>        -0.209901 
     16 C           1.861149    3.676622    0.112500 C.3       1 <1>         0.143333 
     17 C           4.817445    0.285942    0.268214 C.3       1 <1>         0.141013 
     18 C           3.259753    3.637937   -0.547707 C.3       1 <1>         0.138752 
     19 C           4.012782    2.568360    0.291923 C.3       1 <1>         0.188494 
     20 C           6.141032    0.239568   -0.541424 C.3       1 <1>         0.114441 
     21 C           6.950289   -1.042213   -0.202407 C.3       1 <1>         0.111906 
     22 C           4.077085   -1.072121    0.187448 C.3       1 <1>         0.194008 
     23 C           2.252039    3.409732    1.584611 C.3       1 <1>         0.084310 
     24 C           6.065218   -2.299735   -0.404358 C.3       1 <1>         0.113017 
     25 C           0.912661    2.586488   -0.462812 C.3       1 <1>         0.090909 
     26 C           6.846789   -3.590716   -0.044622 C.3       1 <1>         0.073015 
     27 C           1.787569   -1.390510    0.954820 C.ar      1 <1>         0.079482 
     28 C          -1.337278    1.929665   -0.319213 C.2       1 <1>         0.300433 
     29 C           1.469823   -2.527591    0.196852 C.ar      1 <1>        -0.031231 
     30 C           0.710785   -0.512915    1.461896 C.ar      1 <1>        -0.031231 
     31 C          -0.976590   -1.964786    0.321790 C.ar      1 <1>        -0.017820 
     32 C          -2.436712   -2.242987   -0.059007 C.3       1 <1>         0.097160 
     33 C           0.054135   -2.819957   -0.131935 C.ar      1 <1>        -0.053652 
     34 C          -0.626052   -0.797391    1.168094 C.ar      1 <1>        -0.053652 
     35 C          -2.689233    1.921751    0.353772 C.ar      1 <1>         0.123008 
     36 C          -2.632194   -2.049087   -1.583265 C.3       1 <1>         0.041476 
     37 C          -3.991320    1.550509   -0.240136 C.ar      1 <1>         0.064715 
     38 C          -2.935773    2.279406    1.674563 C.ar      1 <1>         0.183746 
     39 C          -4.082617   -2.260920   -1.915394 C.2       1 <1>         0.168428 
     40 C          -4.985639    1.710577    0.831941 C.ar      1 <1>         0.214209 
     41 C          -4.685253   -1.578775    0.412125 C.ar      1 <1>         0.089874 
     42 C          -5.120273   -2.024261   -0.845316 C.ar      1 <1>         0.047604 
     43 C          -4.358343    1.133748   -1.530363 C.ar      1 <1>        -0.047354 
     44 C          -6.343854    1.453182    0.620104 C.ar      1 <1>         0.010291 
     45 C          -5.670857   -1.328562    1.486766 C.ar      1 <1>        -0.001193 
     46 C          -6.564991   -2.248012   -1.094983 C.ar      1 <1>        -0.046345 
     47 C          -5.795045    0.845570   -1.773225 C.ar      1 <1>        -0.060767 
     48 C          -6.754753    1.002771   -0.733956 C.ar      1 <1>        -0.055507 
     49 C          -7.036481   -1.521279    1.256377 C.ar      1 <1>         0.075065 
     50 C          -7.497755   -2.002390   -0.071113 C.ar      1 <1>        -0.031116 
     51 H           5.032572    0.462581    1.335511 H         1 <1>         0.067490 
     52 H           3.742715    4.616597   -0.371557 H         1 <1>         0.067462 
     53 H           5.051689    2.893109    0.467760 H         1 <1>         0.093755 
     54 H           5.872188    0.212618   -1.609684 H         1 <1>         0.064768 
     55 H           7.241051   -0.999727    0.859601 H         1 <1>         0.064673 
     56 H           3.622672   -1.153669   -0.815315 H         1 <1>         0.094170 
     57 H           2.699069    4.319129    2.018100 H         1 <1>         0.059108 
     58 H           1.404322    3.097015    2.212139 H         1 <1>         0.059108 
     59 H           5.752638   -2.383547   -1.458742 H         1 <1>         0.064668 
     60 H           1.364751    1.584789   -0.388808 H         1 <1>         0.059635 
     61 H           0.761632    2.835343   -1.526145 H         1 <1>         0.059635 
     62 H           7.071352   -3.580612    1.035142 H         1 <1>         0.058370 
     63 H           7.797161   -3.626889   -0.605329 H         1 <1>         0.058370 
     64 H           0.412251    5.023891    0.391992 H         1 <1>         0.210476 
     65 H           2.801287    4.024724   -2.464479 H         1 <1>         0.210125 
     66 H           7.282667    1.505048    0.536477 H         1 <1>         0.210005 
     67 H           8.026722   -1.128214   -1.906918 H         1 <1>         0.210004 
     68 H           6.475376   -5.570303   -0.158932 H         1 <1>         0.209508 
     69 H           2.253797   -3.190987   -0.152617 H         1 <1>         0.064339 
     70 H           0.971744    0.348639    2.068025 H         1 <1>         0.064339 
     71 H          -2.661158   -3.285041    0.224798 H         1 <1>         0.065571 
     72 H          -0.176993   -3.694483   -0.730104 H         1 <1>         0.062190 
     73 H          -1.400833   -0.157933    1.570844 H         1 <1>         0.062190 
     74 H          -2.015075   -2.760330   -2.153839 H         1 <1>         0.037398 
     75 H          -2.339668   -1.029324   -1.866988 H         1 <1>         0.037398 
     76 H          -2.170907    2.614404    2.372043 H         1 <1>         0.138420 
     77 H          -4.736967    2.302007    2.851099 H         1 <1>         0.452871 
     78 H          -3.628234    1.029017   -2.325163 H         1 <1>         0.062576 
     79 H          -7.072752    1.577398    1.414555 H         1 <1>         0.068340 
     80 H          -5.330211   -0.989234    2.458203 H         1 <1>         0.066929 
     81 H          -6.895308   -2.600798   -2.067270 H         1 <1>         0.062610 
     82 H          -6.110326    0.512548   -2.758075 H         1 <1>         0.061781 
     83 H          -7.802330    0.793366   -0.928089 H         1 <1>         0.061965 
     84 H          -8.554318   -2.164259   -0.255451 H         1 <1>         0.064341 
     85 H          -8.830843   -1.533837    2.089751 H         1 <1>         0.217315 
@<TRIPOS>BOND
     1   17    1 1    
     2    1   19 1    
     3   19    2 1    
     4    2   23 1    
     5   22    3 1    
     6    3   24 1    
     7   16    4 1    
     8    4   64 1    
     9   18    5 1    
    10    5   65 1    
    11   20    6 1    
    12    6   66 1    
    13    7   22 1    
    14   27    7 1    
    15   21    8 1    
    16    8   67 1    
    17   25    9 1    
    18    9   28 1    
    19   26   10 1    
    20   10   68 1    
    21   11   32 1    
    22   41   11 1    
    23   28   12 2    
    24   39   13 2    
    25   49   14 1    
    26   14   85 1    
    27   38   15 1    
    28   15   40 1    
    29   15   77 1    
    30   18   16 1    
    31   16   23 1    
    32   16   25 1    
    33   17   20 1    
    34   22   17 1    
    35   17   51 1    
    36   19   18 1    
    37   18   52 1    
    38   19   53 1    
    39   20   21 1    
    40   20   54 1    
    41   24   21 1    
    42   21   55 1    
    43   22   56 1    
    44   23   57 1    
    45   23   58 1    
    46   24   26 1    
    47   24   59 1    
    48   25   60 1    
    49   25   61 1    
    50   26   62 1    
    51   26   63 1    
    52   29   27 2    
    53   30   27 1    
    54   28   35 1    
    55   33   29 1    
    56   29   69 1    
    57   34   30 2    
    58   30   70 1    
    59   32   31 1    
    60   31   33 2    
    61   31   34 1    
    62   32   36 1    
    63   32   71 1    
    64   33   72 1    
    65   34   73 1    
    66   35   37 1    
    67   35   38 2    
    68   39   36 1    
    69   36   74 1    
    70   36   75 1    
    71   37   40 1    
    72   37   43 2    
    73   38   76 1    
    74   42   39 1    
    75   40   44 2    
    76   41   42 2    
    77   45   41 1    
    78   42   46 1    
    79   43   47 1    
    80   43   78 1    
    81   44   48 1    
    82   44   79 1    
    83   45   49 2    
    84   45   80 1    
    85   46   50 2    
    86   46   81 1    
    87   47   48 2    
    88   47   82 1    
    89   48   83 1    
    90   49   50 1    
    91   50   84 1    
@<TRIPOS>SUBSTRUCTURE
     1 ****       11 TEMP              0 ****  ****    0 ROOT 
@<TRIPOS>NORMAL
@<TRIPOS>FF_PBC
FORCE_FIELD_SETUP_FEATURE Force Field Setup information
v1.0  0 0.000000 0.000000 0.000000 0.000000 0.000000 0.000000 NONE 0 0 0 0 1 0 0 0 0 0 0 0 0
