@<TRIPOS>MOLECULE
MOL004938
   70    74     1     1     0
SMALL
GASTEIGER


@<TRIPOS>ATOM
      1 C           2.573452   -0.651998    3.017626 C.2       1 <1>         0.093974 
      2 C           1.923266   -1.301090    3.991873 C.2       1 <1>         0.016922 
      3 C           0.577694   -1.840121    3.759432 C.2       1 <1>         0.193680 
      4 O          -0.011722   -2.417156    4.660183 O.2       1 <1>        -0.287015 
      5 C          -0.026928   -1.627291    2.396069 C.ar      1 <1>         0.087042 
      6 C          -1.386882   -2.110010    2.051933 C.ar      1 <1>         0.118759 
      7 O          -2.124389   -2.829662    2.994293 O.3       1 <1>        -0.356586 
      8 C          -1.927393   -1.849961    0.781678 C.ar      1 <1>         0.142038 
      9 C          -1.108984   -1.111891   -0.224116 C.ar      1 <1>         0.138365 
     10 O          -1.615997   -0.841546   -1.499981 O.3       1 <1>        -0.355259 
     11 C           0.207133   -0.697453    0.091236 C.ar      1 <1>         0.142807 
     12 C           0.752871   -0.941886    1.454243 C.ar      1 <1>         0.129018 
     13 O           2.036949   -0.496465    1.799201 O.3       1 <1>        -0.305121 
     14 C           3.934172   -0.032259    3.254451 C.ar      1 <1>         0.005752 
     15 C           4.227930    1.255755    2.584634 C.ar      1 <1>        -0.049682 
     16 C           5.456347    1.891621    2.768056 C.ar      1 <1>        -0.031304 
     17 C           6.480430    1.293263    3.654182 C.ar      1 <1>         0.072619 
     18 O           7.691345    1.961709    3.845019 O.3       1 <1>        -0.359832 
     19 C           6.207520    0.065212    4.282115 C.ar      1 <1>        -0.031304 
     20 C           4.907762   -0.616112    4.074514 C.ar      1 <1>        -0.049682 
     21 O          -3.224490   -2.332366    0.521643 O.3       1 <1>        -0.307297 
     22 C          -3.919704   -2.103236   -0.713748 C.3       1 <1>         0.193865 
     23 C          -5.297710   -2.819221   -0.708124 C.3       1 <1>         0.134512 
     24 O          -5.119586   -4.249273   -0.658680 O.3       1 <1>        -0.384091 
     25 C          -6.097072   -2.444088   -1.982265 C.3       1 <1>         0.114074 
     26 O          -7.421733   -2.997242   -1.859840 O.3       1 <1>        -0.386401 
     27 C          -6.168450   -0.904872   -2.140463 C.3       1 <1>         0.111896 
     28 O          -6.779540   -0.615612   -3.414461 O.3       1 <1>        -0.386488 
     29 C          -4.745666   -0.291160   -2.049503 C.3       1 <1>         0.113017 
     30 O          -4.112219   -0.678982   -0.814262 O.3       1 <1>        -0.340165 
     31 C          -4.817463    1.257618   -2.069077 C.3       1 <1>         0.073015 
     32 O          -5.606576    1.700933   -3.196037 O.3       1 <1>        -0.392366 
     33 O           0.963549   -0.106802   -0.931765 O.3       1 <1>        -0.307283 
     34 C           2.001757    0.894641   -0.846736 C.3       1 <1>         0.193455 
     35 C           2.714783    0.811645   -2.223073 C.3       1 <1>         0.134489 
     36 O           1.761818    1.038998   -3.284822 O.3       1 <1>        -0.384091 
     37 C           3.868755    1.842418   -2.253787 C.3       1 <1>         0.113721 
     38 O           4.825335    1.481485   -1.238025 O.3       1 <1>        -0.386412 
     39 C           3.304539    3.262792   -2.005712 C.3       1 <1>         0.106933 
     40 O           4.446791    4.140767   -1.896298 O.3       1 <1>        -0.386859 
     41 C           2.452317    3.269622   -0.708025 C.3       1 <1>         0.079205 
     42 O           1.450700    2.221262   -0.654411 O.3       1 <1>        -0.345704 
     43 H           2.344931   -1.432695    4.988110 H         1 <1>         0.068219 
     44 H          -2.939312   -3.162905    2.626706 H         1 <1>         0.217446 
     45 H          -1.090977   -0.200502   -1.970543 H         1 <1>         0.217504 
     46 H           3.481917    1.705859    1.946645 H         1 <1>         0.062503 
     47 H           5.668736    2.826295    2.260102 H         1 <1>         0.064339 
     48 H           8.312335    1.493759    4.391647 H         1 <1>         0.217313 
     49 H           6.945194   -0.392689    4.932323 H         1 <1>         0.064339 
     50 H           4.720585   -1.567860    4.562526 H         1 <1>         0.062503 
     51 H          -3.318967   -2.532575   -1.533030 H         1 <1>         0.094162 
     52 H          -5.855014   -2.473052    0.179492 H         1 <1>         0.067108 
     53 H          -5.953702   -4.710548   -0.670929 H         1 <1>         0.210111 
     54 H          -5.592463   -2.882525   -2.859825 H         1 <1>         0.064758 
     55 H          -7.973301   -2.781609   -2.606611 H         1 <1>         0.210005 
     56 H          -6.783672   -0.503768   -1.316904 H         1 <1>         0.064673 
     57 H          -6.810810    0.324565   -3.583521 H         1 <1>         0.210004 
     58 H          -4.148446   -0.623690   -2.917486 H         1 <1>         0.064668 
     59 H          -3.789215    1.654635   -2.115709 H         1 <1>         0.058370 
     60 H          -5.274430    1.590072   -1.121696 H         1 <1>         0.058370 
     61 H          -5.688446    2.649098   -3.267620 H         1 <1>         0.209508 
     62 H           2.744534    0.649488   -0.075717 H         1 <1>         0.094151 
     63 H           3.143775   -0.201340   -2.309445 H         1 <1>         0.067107 
     64 H           2.134192    0.911320   -4.149828 H         1 <1>         0.210111 
     65 H           4.360638    1.822397   -3.245739 H         1 <1>         0.064747 
     66 H           5.543861    2.107405   -1.194656 H         1 <1>         0.210005 
     67 H           2.675789    3.545604   -2.865684 H         1 <1>         0.064300 
     68 H           4.214512    5.058966   -1.804295 H         1 <1>         0.209989 
     69 H           1.940755    4.243360   -0.609047 H         1 <1>         0.058735 
     70 H           3.137347    3.174672    0.142226 H         1 <1>         0.058735 
@<TRIPOS>BOND
     1    1    2 2    
     2    1   13 1    
     3    1   14 1    
     4    2    3 1    
     5    2   43 1    
     6    3    4 2    
     7    3    5 1    
     8    5    6 1    
     9    5   12 2    
    10    6    7 1    
    11    6    8 2    
    12    7   44 1    
    13    8    9 1    
    14    8   21 1    
    15    9   10 1    
    16    9   11 2    
    17   10   45 1    
    18   11   12 1    
    19   11   33 1    
    20   12   13 1    
    21   14   15 1    
    22   14   20 2    
    23   15   16 2    
    24   15   46 1    
    25   16   17 1    
    26   16   47 1    
    27   17   18 1    
    28   17   19 2    
    29   18   48 1    
    30   19   20 1    
    31   19   49 1    
    32   20   50 1    
    33   21   22 1    
    34   22   23 1    
    35   22   30 1    
    36   22   51 1    
    37   23   24 1    
    38   23   25 1    
    39   23   52 1    
    40   24   53 1    
    41   25   26 1    
    42   25   27 1    
    43   25   54 1    
    44   26   55 1    
    45   27   28 1    
    46   27   29 1    
    47   27   56 1    
    48   28   57 1    
    49   29   30 1    
    50   29   31 1    
    51   29   58 1    
    52   31   32 1    
    53   31   59 1    
    54   31   60 1    
    55   32   61 1    
    56   33   34 1    
    57   34   35 1    
    58   34   42 1    
    59   34   62 1    
    60   35   36 1    
    61   35   37 1    
    62   35   63 1    
    63   36   64 1    
    64   37   38 1    
    65   37   39 1    
    66   37   65 1    
    67   38   66 1    
    68   39   40 1    
    69   39   41 1    
    70   39   67 1    
    71   40   68 1    
    72   41   42 1    
    73   41   69 1    
    74   41   70 1    
@<TRIPOS>SUBSTRUCTURE
     1 ****        1 TEMP              0 ****  ****    0 ROOT 
@<TRIPOS>NORMAL
@<TRIPOS>FF_PBC
FORCE_FIELD_SETUP_FEATURE Force Field Setup information
v1.0  0 0.000000 0.000000 0.000000 0.000000 0.000000 0.000000 NONE 0 0 0 0 1 0 0 0 0 0 0 0 0
