@<TRIPOS>MOLECULE
MOL004877
   63    65     1     1     0
SMALL
GASTEIGER


@<TRIPOS>ATOM
      1 C          -1.438091   -0.788602   -1.282649 C.ar      1 <1>         0.087343 
      2 C          -0.337701   -0.134271   -1.707079 C.ar      1 <1>         0.013587 
      3 C          -0.458344    1.051740   -2.586964 C.ar      1 <1>         0.084283 
      4 C          -1.664835    1.413682   -3.031872 C.ar      1 <1>        -0.001199 
      5 C          -2.871515    0.662674   -2.629079 C.ar      1 <1>         0.080952 
      6 C          -2.786132   -0.376628   -1.756267 C.ar      1 <1>         0.016389 
      7 C          -5.370832   -0.506571   -1.384177 C.2       1 <1>        -0.080815 
      8 C          -6.508958   -1.174813   -1.628104 C.2       1 <1>        -0.079306 
      9 C          -7.802670   -0.447772   -1.922024 C.3       1 <1>        -0.044040 
     10 C          -6.597346   -2.684797   -1.644990 C.3       1 <1>        -0.044040 
     11 C          -4.012098   -1.155462   -1.246239 C.3       1 <1>        -0.004343 
     12 O          -4.093887    1.045427   -3.174380 O.3       1 <1>        -0.359385 
     13 O           0.664711    1.799778   -2.948370 O.3       1 <1>        -0.343649 
     14 C           1.052447   -0.607518   -1.270792 C.3       1 <1>        -0.013741 
     15 C           2.191829    0.339161   -1.752807 C.3       1 <1>         0.014624 
     16 C           1.698308    1.793029   -1.951616 C.3       1 <1>         0.061401 
     17 C           3.425629    0.334291   -0.831706 C.ar      1 <1>        -0.011643 
     18 C           4.745900   -0.021228   -1.410164 C.ar      1 <1>        -0.053335 
     19 C           5.887332   -0.031769   -0.599181 C.ar      1 <1>        -0.031234 
     20 C           5.783908    0.307874    0.837472 C.ar      1 <1>         0.078500 
     21 C           4.537962    0.666274    1.398467 C.ar      1 <1>         0.015986 
     22 C           3.325728    0.671099    0.536002 C.ar      1 <1>         0.081990 
     23 O           2.080252    1.005488    1.059582 O.3       1 <1>        -0.359186 
     24 O           6.929676    0.273013    1.623175 O.3       1 <1>        -0.359468 
     25 C           4.527978    1.017051    2.900014 C.3       1 <1>        -0.004353 
     26 C           3.315637    1.713010    3.474760 C.2       1 <1>        -0.080815 
     27 C           2.884770    1.529111    4.732498 C.2       1 <1>        -0.079306 
     28 C           1.565534    2.106092    5.196453 C.3       1 <1>        -0.044040 
     29 C           3.649515    0.735232    5.774547 C.3       1 <1>        -0.044040 
     30 O          -1.276712   -1.855669   -0.392022 O.3       1 <1>        -0.347194 
     31 C          -1.624512   -3.195345   -0.787103 C.3       1 <1>         0.043052 
     32 H          -1.762888    2.278919   -3.684012 H         1 <1>         0.066929 
     33 H          -5.418559    0.576994   -1.279163 H         1 <1>         0.057473 
     34 H          -7.653126    0.636749   -2.044432 H         1 <1>         0.027427 
     35 H          -8.210565   -0.831965   -2.870653 H         1 <1>         0.027427 
     36 H          -8.536089   -0.613108   -1.120225 H         1 <1>         0.027427 
     37 H          -5.875466   -3.147028   -0.953552 H         1 <1>         0.027427 
     38 H          -7.599050   -3.026921   -1.338051 H         1 <1>         0.027427 
     39 H          -6.407145   -3.039905   -2.668250 H         1 <1>         0.027427 
     40 H          -3.990454   -2.090256   -1.825239 H         1 <1>         0.035721 
     41 H          -3.876160   -1.369992   -0.176848 H         1 <1>         0.035721 
     42 H          -4.333281    0.452302   -3.875485 H         1 <1>         0.217328 
     43 H           1.020260   -0.698475   -0.176795 H         1 <1>         0.032136 
     44 H           1.212398   -1.622642   -1.674235 H         1 <1>         0.032136 
     45 H           2.486442    0.009959   -2.764803 H         1 <1>         0.037527 
     46 H           2.522627    2.434919   -2.305802 H         1 <1>         0.057101 
     47 H           1.312244    2.215204   -1.010405 H         1 <1>         0.057101 
     48 H           4.831684   -0.277018   -2.461227 H         1 <1>         0.062197 
     49 H           6.854598   -0.289353   -1.026816 H         1 <1>         0.064339 
     50 H           1.851761    0.431964    1.786319 H         1 <1>         0.217338 
     51 H           6.996580   -0.566364    2.071603 H         1 <1>         0.217326 
     52 H           5.387907    1.658217    3.146713 H         1 <1>         0.035721 
     53 H           4.655263    0.038510    3.391957 H         1 <1>         0.035721 
     54 H           2.759496    2.402205    2.833925 H         1 <1>         0.057473 
     55 H           1.725194    2.752719    6.070242 H         1 <1>         0.027427 
     56 H           0.908720    1.269750    5.477350 H         1 <1>         0.027427 
     57 H           1.056053    2.691449    4.417325 H         1 <1>         0.027427 
     58 H           3.349518    1.050762    6.785450 H         1 <1>         0.027427 
     59 H           3.434567   -0.337839    5.666757 H         1 <1>         0.027427 
     60 H           4.737577    0.902921    5.695847 H         1 <1>         0.027427 
     61 H          -0.939304   -3.876675   -0.259705 H         1 <1>         0.052870 
     62 H          -1.512283   -3.359264   -1.868981 H         1 <1>         0.052870 
     63 H          -2.641817   -3.463577   -0.470351 H         1 <1>         0.052870 
@<TRIPOS>BOND
     1    1    2 2    
     2    6    1 1    
     3    1   30 1    
     4    2    3 1    
     5    2   14 1    
     6    4    3 2    
     7    3   13 1    
     8    5    4 1    
     9    4   32 1    
    10    6    5 2    
    11    5   12 1    
    12   11    6 1    
    13    7    8 2    
    14    7   11 1    
    15    7   33 1    
    16    8    9 1    
    17    8   10 1    
    18    9   34 1    
    19    9   35 1    
    20    9   36 1    
    21   10   37 1    
    22   10   38 1    
    23   10   39 1    
    24   11   40 1    
    25   11   41 1    
    26   12   42 1    
    27   13   16 1    
    28   14   15 1    
    29   14   43 1    
    30   14   44 1    
    31   15   16 1    
    32   15   17 1    
    33   15   45 1    
    34   16   46 1    
    35   16   47 1    
    36   17   18 1    
    37   17   22 2    
    38   18   19 2    
    39   18   48 1    
    40   19   20 1    
    41   19   49 1    
    42   20   21 2    
    43   20   24 1    
    44   21   22 1    
    45   21   25 1    
    46   22   23 1    
    47   23   50 1    
    48   24   51 1    
    49   25   26 1    
    50   25   52 1    
    51   25   53 1    
    52   26   27 2    
    53   26   54 1    
    54   27   28 1    
    55   27   29 1    
    56   28   55 1    
    57   28   56 1    
    58   28   57 1    
    59   29   58 1    
    60   29   59 1    
    61   29   60 1    
    62   30   31 1    
    63   31   61 1    
    64   31   62 1    
    65   31   63 1    
@<TRIPOS>SUBSTRUCTURE
     1 ****        7 TEMP              0 ****  ****    0 ROOT 
@<TRIPOS>NORMAL
@<TRIPOS>FF_PBC
FORCE_FIELD_SETUP_FEATURE Force Field Setup information
v1.0  0 0.000000 0.000000 0.000000 0.000000 0.000000 0.000000 NONE 0 0 0 0 1 0 0 0 0 0 0 0 0
