@<TRIPOS>MOLECULE
MOL012945
  157   166     1     1     0
SMALL
GASTEIGER


@<TRIPOS>ATOM
      1 C           3.118735    9.725487    3.721394 C.2       1 <1>        -0.077208 
      2 C           2.295669   10.312661    4.848965 C.3       1 <1>        -0.043969 
      3 C           4.487093    9.224136    4.129852 C.3       1 <1>        -0.043969 
      4 C           2.642210    9.671809    2.465122 C.2       1 <1>        -0.056719 
      5 C           3.392883    9.126449    1.267947 C.3       1 <1>         0.082911 
      6 O           3.695262    7.727848    1.482212 O.3       1 <1>        -0.340889 
      7 C           2.670997    9.413457   -0.084600 C.3       1 <1>         0.006275 
      8 C           1.334013    8.619526   -0.270924 C.3       1 <1>         0.073921 
      9 C           1.440053    7.287176    0.547457 C.3       1 <1>         0.045172 
     10 C           2.907644    6.841984    0.671767 C.3       1 <1>         0.176956 
     11 C           1.034953    8.534199   -1.795454 C.3       1 <1>        -0.035536 
     12 O           0.283072    9.422153    0.304956 O.3       1 <1>        -0.388286 
     13 C           0.785853    5.914047    0.179816 C.3       1 <1>        -0.022254 
     14 C           1.978229    4.935796   -0.091407 C.3       1 <1>         0.008081 
     15 C           2.867469    5.360472    1.117579 C.3       1 <1>         0.010330 
     16 C          -0.341640    5.705436   -0.847992 C.3       1 <1>        -0.048816 
     17 C          -0.927871    4.264939   -0.650014 C.3       1 <1>        -0.048911 
     18 C           0.017528    3.219679    0.063503 C.3       1 <1>        -0.029356 
     19 C           1.518809    3.426866   -0.365491 C.3       1 <1>        -0.020557 
     20 C          -0.583354    1.743399    0.153318 C.3       1 <1>        -0.025246 
     21 C           0.508081    0.650763    0.534320 C.3       1 <1>        -0.027836 
     22 C           1.705937    1.343196    1.253589 C.3       1 <1>        -0.048617 
     23 C           2.447073    2.398274    0.381279 C.3       1 <1>        -0.046476 
     24 C          -1.387592    1.295980   -1.111812 C.3       1 <1>        -0.044721 
     25 C          -1.598336   -0.236572   -1.154519 C.3       1 <1>        -0.025470 
     26 C          -0.266790   -0.976673   -1.424214 C.3       1 <1>         0.067174 
     27 C           0.863508   -0.616788   -0.381769 C.3       1 <1>        -0.005230 
     28 C           2.913588    5.512075   -1.198517 C.3       1 <1>         0.057503 
     29 O           3.431648    6.730068   -0.653928 O.3       1 <1>        -0.347589 
     30 C           1.585356    3.125978   -1.903733 C.3       1 <1>        -0.058701 
     31 C          -1.660311    1.796395    1.317747 C.3       1 <1>        -0.059019 
     32 C           1.075175   -1.872199    0.544949 C.3       1 <1>        -0.057181 
     33 C           2.242669   -0.523902   -1.123992 C.3       1 <1>        -0.057181 
     34 O          -0.672380   -2.369102   -1.369888 O.3       1 <1>        -0.344893 
     35 C          -0.045936   -3.251199   -2.325030 C.3       1 <1>         0.188196 
     36 O          -0.597633   -3.042545   -3.637515 O.3       1 <1>        -0.346051 
     37 C          -1.994175   -3.387130   -3.706880 C.3       1 <1>         0.079203 
     38 C          -2.199495   -4.873760   -3.329655 C.3       1 <1>         0.107307 
     39 C          -1.738884   -5.090904   -1.859640 C.3       1 <1>         0.120590 
     40 C          -0.226823   -4.715595   -1.827844 C.3       1 <1>         0.140966 
     41 O          -3.577077   -5.229602   -3.552830 O.3       1 <1>        -0.386848 
     42 O           0.488004   -5.745632   -2.557034 O.3       1 <1>        -0.337751 
     43 C           1.927163   -5.608109   -2.564711 C.3       1 <1>         0.188431 
     44 C          -2.461998   -4.670137    0.441429 C.3       1 <1>         0.188803 
     45 O          -3.229570   -5.851975    0.734069 O.3       1 <1>        -0.340510 
     46 C          -4.661726   -5.691263    0.627348 C.3       1 <1>         0.113005 
     47 C          -5.195904   -4.429831    1.365833 C.3       1 <1>         0.111906 
     48 C          -4.347710   -3.157954    1.096062 C.3       1 <1>         0.114429 
     49 C          -2.860539   -3.482697    1.362812 C.3       1 <1>         0.140628 
     50 O           2.337143   -4.605389   -3.509626 O.3       1 <1>        -0.343067 
     51 C           1.915979   -4.899063   -4.857045 C.3       1 <1>         0.087307 
     52 C           2.557798   -6.223684   -5.357003 C.3       1 <1>         0.109478 
     53 C           2.156785   -7.362557   -4.379586 C.3       1 <1>         0.113972 
     54 C           2.574499   -6.965803   -2.938916 C.3       1 <1>         0.134123 
     55 C          -5.209919   -5.861752   -0.812135 C.3       1 <1>         0.073015 
     56 O          -6.645501   -5.986087   -0.764778 O.3       1 <1>        -0.392366 
     57 O          -4.533477   -2.547545   -0.196773 O.3       1 <1>        -0.386391 
     58 O          -5.217077   -4.681411    2.785756 O.3       1 <1>        -0.386488 
     59 C           2.326733   -3.709304   -5.759330 C.3       1 <1>        -0.036060 
     60 O           2.714801   -8.637264   -4.749213 O.3       1 <1>        -0.386402 
     61 O           4.010503   -6.905356   -2.810198 O.3       1 <1>        -0.384104 
     62 O           3.989955   -6.047384   -5.418026 O.3       1 <1>        -0.386579 
     63 O          -2.555188   -4.292986   -0.955884 O.3       1 <1>        -0.340043 
     64 O          -2.697881   -3.793852    2.773452 O.3       1 <1>        -0.337771 
     65 C          -1.365281   -3.588053    3.302518 C.3       1 <1>         0.188134 
     66 O          -1.202700   -4.446111    4.445749 O.3       1 <1>        -0.346058 
     67 C          -2.041917   -4.079663    5.555988 C.3       1 <1>         0.079193 
     68 C          -1.673877   -2.658150    6.052151 C.3       1 <1>         0.106933 
     69 C          -1.926948   -1.664672    4.894151 C.3       1 <1>         0.113709 
     70 C          -1.072490   -2.104132    3.675306 C.3       1 <1>         0.134103 
     71 O          -3.338222   -1.649855    4.595462 O.3       1 <1>        -0.386412 
     72 O           0.332524   -1.900443    3.926820 O.3       1 <1>        -0.384104 
     73 O          -0.279270   -2.585094    6.418733 O.3       1 <1>        -0.386859 
     74 H           1.311212   10.685378    4.526256 H         1 <1>         0.027428 
     75 H           2.844880   11.153579    5.299907 H         1 <1>         0.027428 
     76 H           2.131411    9.547471    5.622758 H         1 <1>         0.027428 
     77 H           5.041769    8.709550    3.334589 H         1 <1>         0.027428 
     78 H           4.380975    8.517704    4.966439 H         1 <1>         0.027428 
     79 H           5.092036   10.078437    4.469416 H         1 <1>         0.027428 
     80 H           1.639430   10.054286    2.281238 H         1 <1>         0.059695 
     81 H           4.358535    9.659237    1.243307 H         1 <1>         0.064228 
     82 H           2.475088   10.494060   -0.181741 H         1 <1>         0.032111 
     83 H           3.384105    9.148700   -0.881661 H         1 <1>         0.032111 
     84 H           1.175054    7.569203    1.582904 H         1 <1>         0.038356 
     85 H           0.025711    8.157503   -1.999167 H         1 <1>         0.025733 
     86 H           1.080171    9.548469   -2.221888 H         1 <1>         0.025733 
     87 H           1.767862    7.917191   -2.329062 H         1 <1>         0.025733 
     88 H          -0.572249    9.008521    0.251228 H         1 <1>         0.210163 
     89 H           0.273115    5.661244    1.123892 H         1 <1>         0.031229 
     90 H           3.906695    4.991280    1.130762 H         1 <1>         0.032341 
     91 H           2.413179    5.201360    2.109356 H         1 <1>         0.032341 
     92 H          -1.128551    6.464394   -0.707739 H         1 <1>         0.026833 
     93 H           0.059992    5.829623   -1.861072 H         1 <1>         0.026833 
     94 H          -1.252101    3.907253   -1.637762 H         1 <1>         0.026837 
     95 H          -1.843186    4.381360   -0.051655 H         1 <1>         0.026837 
     96 H           0.080820    3.513685    1.117027 H         1 <1>         0.031156 
     97 H           0.031306    0.127285    1.376670 H         1 <1>         0.031210 
     98 H           1.334575    1.859085    2.157960 H         1 <1>         0.026846 
     99 H           2.433679    0.603247    1.623745 H         1 <1>         0.026846 
    100 H           3.131658    2.879165    1.089174 H         1 <1>         0.027088 
    101 H           3.120328    1.902403   -0.328156 H         1 <1>         0.027088 
    102 H          -2.378734    1.775320   -1.126636 H         1 <1>         0.027149 
    103 H          -0.919327    1.564208   -2.062068 H         1 <1>         0.027149 
    104 H          -2.303115   -0.479079   -1.968934 H         1 <1>         0.029047 
    105 H          -2.050119   -0.613573   -0.230726 H         1 <1>         0.029047 
    106 H           0.034622   -0.682349   -2.445984 H         1 <1>         0.060224 
    107 H           2.443067    5.694188   -2.171894 H         1 <1>         0.056658 
    108 H           3.795648    4.868129   -1.346301 H         1 <1>         0.056658 
    109 H           1.179321    2.146037   -2.125935 H         1 <1>         0.023534 
    110 H           2.614208    3.113422   -2.290378 H         1 <1>         0.023534 
    111 H           1.009156    3.828487   -2.514924 H         1 <1>         0.023534 
    112 H          -1.199364    2.025019    2.291853 H         1 <1>         0.023525 
    113 H          -2.203754    0.853217    1.464383 H         1 <1>         0.023525 
    114 H          -2.435779    2.554846    1.147251 H         1 <1>         0.023525 
    115 H           1.787951   -1.661349    1.355493 H         1 <1>         0.023587 
    116 H           1.463378   -2.745111    0.001043 H         1 <1>         0.023587 
    117 H           0.127062   -2.180274    1.000995 H         1 <1>         0.023587 
    118 H           2.449009   -1.421546   -1.718428 H         1 <1>         0.023587 
    119 H           2.304037    0.297709   -1.837205 H         1 <1>         0.023587 
    120 H           3.080602   -0.444635   -0.416921 H         1 <1>         0.023587 
    121 H           1.023734   -3.037540   -2.387336 H         1 <1>         0.093749 
    122 H          -2.324900   -3.228394   -4.745464 H         1 <1>         0.058735 
    123 H          -2.605910   -2.741785   -3.058519 H         1 <1>         0.058735 
    124 H          -1.572137   -5.472681   -4.015627 H         1 <1>         0.064310 
    125 H          -1.865763   -6.160415   -1.623663 H         1 <1>         0.065136 
    126 H           0.148853   -4.751257   -0.796593 H         1 <1>         0.067487 
    127 H          -3.742569   -6.158939   -3.431444 H         1 <1>         0.209990 
    128 H           2.327428   -5.340076   -1.572145 H         1 <1>         0.093753 
    129 H          -1.443034   -4.945058    0.729338 H         1 <1>         0.093763 
    130 H          -5.071657   -6.561471    1.165709 H         1 <1>         0.064668 
    131 H          -6.239540   -4.233704    1.071012 H         1 <1>         0.064673 
    132 H          -4.679665   -2.395832    1.821459 H         1 <1>         0.064768 
    133 H          -2.291787   -2.593463    1.063285 H         1 <1>         0.067477 
    134 H           0.816766   -4.978729   -4.902355 H         1 <1>         0.062075 
    135 H           2.169411   -6.453313   -6.366543 H         1 <1>         0.064584 
    136 H           1.059491   -7.486149   -4.414722 H         1 <1>         0.064757 
    137 H           2.212404   -7.739491   -2.239822 H         1 <1>         0.067095 
    138 H          -4.769617   -6.780462   -1.235246 H         1 <1>         0.058370 
    139 H          -4.940316   -5.015543   -1.451848 H         1 <1>         0.058370 
    140 H          -7.042558   -6.114756   -1.621942 H         1 <1>         0.209508 
    141 H          -4.082052   -3.007191   -0.898686 H         1 <1>         0.210005 
    142 H          -4.338141   -4.828350    3.129837 H         1 <1>         0.210004 
    143 H           2.038191   -3.899110   -6.804461 H         1 <1>         0.025536 
    144 H           1.823531   -2.792064   -5.415036 H         1 <1>         0.025536 
    145 H           3.414478   -3.549707   -5.712505 H         1 <1>         0.025536 
    146 H           3.659583   -8.660536   -4.635322 H         1 <1>         0.210005 
    147 H           4.384401   -6.240243   -3.382962 H         1 <1>         0.210110 
    148 H           4.440594   -6.766977   -5.848684 H         1 <1>         0.210002 
    149 H          -0.579371   -3.932130    2.614204 H         1 <1>         0.093743 
    150 H          -1.855615   -4.805212    6.361734 H         1 <1>         0.058735 
    151 H          -3.108668   -4.138700    5.287310 H         1 <1>         0.058735 
    152 H          -2.312123   -2.374776    6.908497 H         1 <1>         0.064300 
    153 H          -1.604021   -0.659236    5.218650 H         1 <1>         0.064747 
    154 H          -1.323532   -1.438268    2.839135 H         1 <1>         0.067095 
    155 H          -3.571453   -1.042322    3.901186 H         1 <1>         0.210005 
    156 H           0.624185   -2.394671    4.689989 H         1 <1>         0.210110 
    157 H          -0.051685   -3.176157    7.130169 H         1 <1>         0.209989 
@<TRIPOS>BOND
     1    1    2 1    
     2    1    3 1    
     3    4    1 2    
     4    2   74 1    
     5    2   75 1    
     6    2   76 1    
     7    3   77 1    
     8    3   78 1    
     9    3   79 1    
    10    5    4 1    
    11    4   80 1    
    12    6    5 1    
    13    5    7 1    
    14    5   81 1    
    15   10    6 1    
    16    8    7 1    
    17    7   82 1    
    18    7   83 1    
    19    9    8 1    
    20    8   11 1    
    21    8   12 1    
    22   10    9 1    
    23   13    9 1    
    24    9   84 1    
    25   15   10 1    
    26   29   10 1    
    27   11   85 1    
    28   11   86 1    
    29   11   87 1    
    30   12   88 1    
    31   14   13 1    
    32   16   13 1    
    33   13   89 1    
    34   14   15 1    
    35   19   14 1    
    36   14   28 1    
    37   15   90 1    
    38   15   91 1    
    39   17   16 1    
    40   16   92 1    
    41   16   93 1    
    42   18   17 1    
    43   17   94 1    
    44   17   95 1    
    45   18   19 1    
    46   20   18 1    
    47   18   96 1    
    48   23   19 1    
    49   19   30 1    
    50   21   20 1    
    51   24   20 1    
    52   20   31 1    
    53   21   22 1    
    54   27   21 1    
    55   21   97 1    
    56   22   23 1    
    57   22   98 1    
    58   22   99 1    
    59   23  100 1    
    60   23  101 1    
    61   25   24 1    
    62   24  102 1    
    63   24  103 1    
    64   26   25 1    
    65   25  104 1    
    66   25  105 1    
    67   26   27 1    
    68   34   26 1    
    69   26  106 1    
    70   27   32 1    
    71   27   33 1    
    72   28   29 1    
    73   28  107 1    
    74   28  108 1    
    75   30  109 1    
    76   30  110 1    
    77   30  111 1    
    78   31  112 1    
    79   31  113 1    
    80   31  114 1    
    81   32  115 1    
    82   32  116 1    
    83   32  117 1    
    84   33  118 1    
    85   33  119 1    
    86   33  120 1    
    87   35   34 1    
    88   35   36 1    
    89   40   35 1    
    90   35  121 1    
    91   37   36 1    
    92   38   37 1    
    93   37  122 1    
    94   37  123 1    
    95   39   38 1    
    96   38   41 1    
    97   38  124 1    
    98   39   40 1    
    99   63   39 1    
   100   39  125 1    
   101   40   42 1    
   102   40  126 1    
   103   41  127 1    
   104   42   43 1    
   105   43   50 1    
   106   43   54 1    
   107   43  128 1    
   108   44   45 1    
   109   44   49 1    
   110   44   63 1    
   111   44  129 1    
   112   45   46 1    
   113   46   47 1    
   114   46   55 1    
   115   46  130 1    
   116   47   48 1    
   117   47   58 1    
   118   47  131 1    
   119   48   49 1    
   120   48   57 1    
   121   48  132 1    
   122   49   64 1    
   123   49  133 1    
   124   50   51 1    
   125   51   52 1    
   126   51   59 1    
   127   51  134 1    
   128   52   53 1    
   129   52   62 1    
   130   52  135 1    
   131   53   54 1    
   132   53   60 1    
   133   53  136 1    
   134   54   61 1    
   135   54  137 1    
   136   55   56 1    
   137   55  138 1    
   138   55  139 1    
   139   56  140 1    
   140   57  141 1    
   141   58  142 1    
   142   59  143 1    
   143   59  144 1    
   144   59  145 1    
   145   60  146 1    
   146   61  147 1    
   147   62  148 1    
   148   64   65 1    
   149   65   66 1    
   150   65   70 1    
   151   65  149 1    
   152   66   67 1    
   153   67   68 1    
   154   67  150 1    
   155   67  151 1    
   156   68   69 1    
   157   68   73 1    
   158   68  152 1    
   159   69   70 1    
   160   69   71 1    
   161   69  153 1    
   162   70   72 1    
   163   70  154 1    
   164   71  155 1    
   165   72  156 1    
   166   73  157 1    
@<TRIPOS>SUBSTRUCTURE
     1 ****       44 TEMP              0 ****  ****    0 ROOT 
@<TRIPOS>NORMAL
@<TRIPOS>FF_PBC
FORCE_FIELD_SETUP_FEATURE Force Field Setup information
v1.0  0 0.000000 0.000000 0.000000 0.000000 0.000000 0.000000 NONE 0 0 0 0 1 0 0 0 0 0 0 0 0
