@<TRIPOS>MOLECULE
MOL013434
   44    45     1     1     0
SMALL
GASTEIGER


@<TRIPOS>ATOM
      1 C           0.179638    4.989137    2.782348 C.ar      1 <1>         0.005924 
      2 C          -1.094146    4.495433    2.210204 C.ar      1 <1>         0.096010 
      3 C           1.332493    4.184300    2.774851 C.ar      1 <1>        -0.049671 
      4 C           0.189010    6.378665    3.368167 C.2       1 <1>        -0.046443 
      5 C          -1.145288    3.217433    1.640681 C.ar      1 <1>        -0.000436 
      6 O          -2.244574    5.288739    2.232017 O.3       1 <1>        -0.273710 
      7 C           1.268544    2.834949    2.166611 C.ar      1 <1>        -0.030947 
      8 C          -0.952342    7.071553    3.337774 C.2       1 <1>         0.010952 
      9 C           0.070905    2.372370    1.605170 C.ar      1 <1>         0.079080 
     10 C          -2.193522    6.523539    2.756436 C.2       1 <1>         0.291579 
     11 O           0.038246    1.111830    1.016023 O.3       1 <1>        -0.340603 
     12 O          -3.203324    7.205995    2.750550 O.2       1 <1>        -0.259480 
     13 C          -0.186414    1.102957   -0.404749 C.3       1 <1>         0.072648 
     14 C          -0.022801   -0.320981   -0.866823 C.2       1 <1>        -0.059196 
     15 C          -0.372423   -0.781289   -2.080004 C.2       1 <1>        -0.074086 
     16 C          -0.225084   -2.239035   -2.477027 C.3       1 <1>        -0.028491 
     17 C          -0.951088    0.119509   -3.153193 C.3       1 <1>        -0.043707 
     18 C           0.315291   -3.241336   -1.416840 C.3       1 <1>        -0.030847 
     19 C           0.412102   -4.638890   -1.979783 C.2       1 <1>        -0.084989 
     20 C           0.814441   -5.712307   -1.276262 C.2       1 <1>        -0.079608 
     21 C           0.903944   -7.074189   -1.928923 C.3       1 <1>        -0.044049 
     22 C           1.194989   -5.633435    0.186277 C.3       1 <1>        -0.044049 
     23 H           2.262263    4.540546    3.203592 H         1 <1>         0.062503 
     24 H           1.101856    6.789943    3.797437 H         1 <1>         0.062605 
     25 H          -2.077742    2.849770    1.229766 H         1 <1>         0.066953 
     26 H           2.149583    2.201985    2.150127 H         1 <1>         0.064348 
     27 H          -0.983694    8.080093    3.753887 H         1 <1>         0.067748 
     28 H           0.547361    1.744383   -0.920805 H         1 <1>         0.060922 
     29 H          -1.206129    1.454007   -0.623649 H         1 <1>         0.060922 
     30 H           0.411464   -0.979603   -0.117856 H         1 <1>         0.059433 
     31 H           0.445574   -2.281427   -3.350596 H         1 <1>         0.031286 
     32 H          -1.221620   -2.589623   -2.791347 H         1 <1>         0.031286 
     33 H          -0.772296    1.191071   -2.977941 H         1 <1>         0.027437 
     34 H          -2.037763   -0.049485   -3.213138 H         1 <1>         0.027437 
     35 H          -0.505412   -0.125894   -4.129797 H         1 <1>         0.027437 
     36 H          -0.357827   -3.245079   -0.545516 H         1 <1>         0.031044 
     37 H           1.325955   -2.939796   -1.099424 H         1 <1>         0.031044 
     38 H           0.139372   -4.778391   -3.025554 H         1 <1>         0.057155 
     39 H           1.802573   -7.610233   -1.591520 H         1 <1>         0.027427 
     40 H           0.015817   -7.660913   -1.654949 H         1 <1>         0.027427 
     41 H           0.952937   -7.008276   -3.025897 H         1 <1>         0.027427 
     42 H           1.381031   -6.630220    0.613215 H         1 <1>         0.027427 
     43 H           2.110928   -5.036042    0.305147 H         1 <1>         0.027427 
     44 H           0.386976   -5.171863    0.771214 H         1 <1>         0.027427 
@<TRIPOS>BOND
     1    1    2 1    
     2    1    3 2    
     3    1    4 1    
     4    2    5 2    
     5    2    6 1    
     6    3    7 1    
     7    3   23 1    
     8    4    8 2    
     9    4   24 1    
    10    5    9 1    
    11    5   25 1    
    12    6   10 1    
    13    7    9 2    
    14    7   26 1    
    15    8   10 1    
    16    8   27 1    
    17    9   11 1    
    18   10   12 2    
    19   11   13 1    
    20   13   14 1    
    21   13   28 1    
    22   13   29 1    
    23   14   15 2    
    24   14   30 1    
    25   15   16 1    
    26   15   17 1    
    27   16   18 1    
    28   16   31 1    
    29   16   32 1    
    30   17   33 1    
    31   17   34 1    
    32   17   35 1    
    33   18   19 1    
    34   18   36 1    
    35   18   37 1    
    36   19   20 2    
    37   19   38 1    
    38   20   21 1    
    39   20   22 1    
    40   21   39 1    
    41   21   40 1    
    42   21   41 1    
    43   22   42 1    
    44   22   43 1    
    45   22   44 1    
@<TRIPOS>SUBSTRUCTURE
     1 ****        1 TEMP              0 ****  ****    0 ROOT 
@<TRIPOS>NORMAL
@<TRIPOS>FF_PBC
FORCE_FIELD_SETUP_FEATURE Force Field Setup information
v1.0  0 0.000000 0.000000 0.000000 0.000000 0.000000 0.000000 NONE 0 0 0 0 1 0 0 0 0 0 0 0 0
