@<TRIPOS>MOLECULE
MOL001101
   26    25     1     1     0
SMALL
GASTEIGER


@<TRIPOS>ATOM
      1 C          -0.028847    2.947026    0.657311 C.2       1 <1>        -0.079404 
      2 C           0.247015    1.502714    1.034480 C.3       1 <1>        -0.028805 
      3 C          -0.572729    3.245501   -0.723819 C.3       1 <1>        -0.044031 
      4 C          -0.049950    0.409994   -0.030948 C.3       1 <1>        -0.030554 
      5 C           0.268127   -0.981090    0.472586 C.2       1 <1>        -0.080809 
      6 C           0.110479   -2.115939   -0.231746 C.2       1 <1>        -0.054901 
      7 C           0.469639   -3.409362    0.405978 C.2       1 <1>        -0.066240 
      8 C          -0.419390   -2.126854   -1.650944 C.3       1 <1>        -0.040022 
      9 C           0.368361   -4.616767   -0.166056 C.2       1 <1>        -0.098453 
     10 C           0.210985    3.923792    1.543460 C.2       1 <1>        -0.099701 
     11 H           1.312363    1.432308    1.308781 H         1 <1>         0.031277 
     12 H          -0.352089    1.277078    1.931883 H         1 <1>         0.031277 
     13 H          -0.730612    4.323830   -0.876944 H         1 <1>         0.027428 
     14 H           0.132662    2.903344   -1.494647 H         1 <1>         0.027428 
     15 H          -1.541875    2.747014   -0.869036 H         1 <1>         0.027428 
     16 H          -1.118073    0.445781   -0.295422 H         1 <1>         0.031053 
     17 H           0.563365    0.602466   -0.924767 H         1 <1>         0.031053 
     18 H           0.655051   -1.047579    1.490382 H         1 <1>         0.057473 
     19 H           0.851269   -3.399623    1.428893 H         1 <1>         0.061432 
     20 H          -0.664801   -1.138221   -2.060084 H         1 <1>         0.027744 
     21 H          -1.336506   -2.733495   -1.687400 H         1 <1>         0.027744 
     22 H           0.335264   -2.577342   -2.312764 H         1 <1>         0.027744 
     23 H           0.657460   -5.513722    0.383248 H         1 <1>         0.053489 
     24 H           0.003026   -4.766013   -1.180215 H         1 <1>         0.053489 
     25 H           0.027238    4.972870    1.313977 H         1 <1>         0.053432 
     26 H           0.602668    3.692387    2.533912 H         1 <1>         0.053432 
@<TRIPOS>BOND
     1    1    2 1    
     2    1    3 1    
     3    1   10 2    
     4    2    4 1    
     5    2   11 1    
     6    2   12 1    
     7    3   13 1    
     8    3   14 1    
     9    3   15 1    
    10    4    5 1    
    11    4   16 1    
    12    4   17 1    
    13    5    6 2    
    14    5   18 1    
    15    6    7 1    
    16    6    8 1    
    17    7    9 2    
    18    7   19 1    
    19    8   20 1    
    20    8   21 1    
    21    8   22 1    
    22    9   23 1    
    23    9   24 1    
    24   10   25 1    
    25   10   26 1    
@<TRIPOS>SUBSTRUCTURE
     1 ****        1 TEMP              0 ****  ****    0 ROOT 
@<TRIPOS>NORMAL
@<TRIPOS>FF_PBC
FORCE_FIELD_SETUP_FEATURE Force Field Setup information
v1.0  0 0.000000 0.000000 0.000000 0.000000 0.000000 0.000000 NONE 0 0 0 0 1 0 0 0 0 0 0 0 0
