@<TRIPOS>MOLECULE
MOL004922
   41    40     1     1     0
SMALL
GASTEIGER


@<TRIPOS>ATOM
      1 C           3.439466    1.647410   -1.611560 C.3       1 <1>        -0.062665 
      2 C           3.685025    0.627925   -0.463984 C.3       1 <1>        -0.046721 
      3 C           2.670305    0.788653    0.711303 C.3       1 <1>        -0.050700 
      4 C           1.184679    0.506441    0.348019 C.3       1 <1>        -0.052574 
      5 C           0.250892    0.763006    1.563249 C.3       1 <1>        -0.050210 
      6 C          -1.276842    0.656597    1.250713 C.3       1 <1>        -0.041288 
      7 C          -1.673453   -0.760482    0.718221 C.3       1 <1>        -0.050226 
      8 C          -1.770657   -0.831644   -0.833669 C.3       1 <1>        -0.053056 
      9 C          -2.121021   -2.267480   -1.312356 C.3       1 <1>        -0.055902 
     10 C          -2.179114   -2.344652   -2.859904 C.3       1 <1>        -0.065276 
     11 C          -2.083634    1.028465    2.536744 C.3       1 <1>        -0.053062 
     12 C          -3.563653    1.412281    2.256950 C.3       1 <1>        -0.065026 
     13 C           3.729724   -0.820637   -1.024598 C.3       1 <1>        -0.062665 
     14 H           4.280273    1.623106   -2.323067 H         1 <1>         0.023233 
     15 H           3.358420    2.668990   -1.208593 H         1 <1>         0.023233 
     16 H           2.519617    1.411336   -2.166926 H         1 <1>         0.023233 
     17 H           4.684492    0.846341   -0.044227 H         1 <1>         0.029548 
     18 H           2.753964    1.819952    1.092311 H         1 <1>         0.026777 
     19 H           2.963896    0.110283    1.529855 H         1 <1>         0.026777 
     20 H           1.096355   -0.544163    0.037016 H         1 <1>         0.026545 
     21 H           0.866501    1.161744   -0.477154 H         1 <1>         0.026545 
     22 H           0.461189    1.782777    1.925170 H         1 <1>         0.026794 
     23 H           0.506372    0.061083    2.372983 H         1 <1>         0.026794 
     24 H          -1.514274    1.419299    0.489878 H         1 <1>         0.030069 
     25 H          -0.958760   -1.512963    1.087763 H         1 <1>         0.026793 
     26 H          -2.659918   -1.061947    1.100302 H         1 <1>         0.026793 
     27 H          -2.555703   -0.138821   -1.179528 H         1 <1>         0.026529 
     28 H          -0.826755   -0.524779   -1.305596 H         1 <1>         0.026529 
     29 H          -1.359391   -2.977048   -0.947313 H         1 <1>         0.026265 
     30 H          -3.098134   -2.567733   -0.898991 H         1 <1>         0.026265 
     31 H          -2.445496   -3.364268   -3.179989 H         1 <1>         0.022978 
     32 H          -2.934091   -1.645586   -3.251426 H         1 <1>         0.022978 
     33 H          -1.200172   -2.086969   -3.293849 H         1 <1>         0.022978 
     34 H          -1.629252    1.906612    3.023868 H         1 <1>         0.026530 
     35 H          -2.040057    0.192263    3.253418 H         1 <1>         0.026530 
     36 H          -4.053369    1.709202    3.198475 H         1 <1>         0.022986 
     37 H          -4.140922    0.582323    1.825597 H         1 <1>         0.022986 
     38 H          -3.611555    2.265822    1.562675 H         1 <1>         0.022986 
     39 H           3.886162   -1.545004   -0.210310 H         1 <1>         0.023233 
     40 H           4.560521   -0.921411   -1.740642 H         1 <1>         0.023233 
     41 H           2.798174   -1.076325   -1.551029 H         1 <1>         0.023233 
@<TRIPOS>BOND
     1    1    2 1    
     2    1   14 1    
     3    1   15 1    
     4    1   16 1    
     5    2    3 1    
     6    2   13 1    
     7    2   17 1    
     8    3    4 1    
     9    3   18 1    
    10    3   19 1    
    11    4    5 1    
    12    4   20 1    
    13    4   21 1    
    14    5    6 1    
    15    5   22 1    
    16    5   23 1    
    17    6    7 1    
    18    6   11 1    
    19    6   24 1    
    20    7    8 1    
    21    7   25 1    
    22    7   26 1    
    23    8    9 1    
    24    8   27 1    
    25    8   28 1    
    26    9   10 1    
    27    9   29 1    
    28    9   30 1    
    29   10   31 1    
    30   10   32 1    
    31   10   33 1    
    32   11   12 1    
    33   11   34 1    
    34   11   35 1    
    35   12   36 1    
    36   12   37 1    
    37   12   38 1    
    38   13   39 1    
    39   13   40 1    
    40   13   41 1    
@<TRIPOS>SUBSTRUCTURE
     1 ****        1 TEMP              0 ****  ****    0 ROOT 
@<TRIPOS>NORMAL
@<TRIPOS>FF_PBC
FORCE_FIELD_SETUP_FEATURE Force Field Setup information
v1.0  0 0.000000 0.000000 0.000000 0.000000 0.000000 0.000000 NONE 0 0 0 0 1 0 0 0 0 0 0 0 0
