@<TRIPOS>MOLECULE
MOL000415
   73    77     1     1     0
SMALL
GASTEIGER


@<TRIPOS>ATOM
      1 C           1.838343    0.068712   -2.422647 C.2       1 <1>         0.124041 
      2 C           0.846196    0.353338   -1.552307 C.2       1 <1>         0.157591 
      3 C           1.616436   -0.578356   -3.772018 C.ar      1 <1>         0.010738 
      4 O           3.127253    0.361410   -2.166756 O.3       1 <1>        -0.305121 
      5 C           1.141290    1.146400   -0.341209 C.2       1 <1>         0.223405 
      6 O          -0.433794   -0.037238   -1.744310 O.3       1 <1>        -0.306082 
      7 C           2.393127   -1.784426   -4.142653 C.ar      1 <1>        -0.019688 
      8 C           0.698433   -0.031028   -4.687851 C.ar      1 <1>        -0.049435 
      9 C           3.555689    1.004536   -1.006148 C.ar      1 <1>         0.099001 
     10 C           2.576107    1.437811    0.004209 C.ar      1 <1>         0.084562 
     11 O           0.250075    1.582193    0.369687 O.2       1 <1>        -0.284261 
     12 C          -0.713694   -1.405903   -2.135624 C.3       1 <1>         0.193914 
     13 C           2.205055   -2.394810   -5.386874 C.ar      1 <1>         0.102828 
     14 C           0.494341   -0.670632   -6.009602 C.ar      1 <1>        -0.028769 
     15 C           4.923273    1.245841   -0.797614 C.ar      1 <1>        -0.000529 
     16 C           2.985929    2.080671    1.190535 C.ar      1 <1>         0.088401 
     17 O          -2.117336   -1.644951   -1.887629 O.3       1 <1>        -0.340154 
     18 C           0.152034   -2.538153   -1.505948 C.3       1 <1>         0.134513 
     19 C           1.229637   -1.827941   -6.353904 C.ar      1 <1>         0.102222 
     20 O           2.941664   -3.535016   -5.710838 O.3       1 <1>        -0.357261 
     21 C           5.376860    1.941225    0.433833 C.ar      1 <1>         0.077519 
     22 C           4.432933    2.341486    1.397287 C.ar      1 <1>        -0.001302 
     23 O           2.040186    2.462038    2.145176 O.3       1 <1>        -0.358954 
     24 C          -2.483021   -1.775591   -0.490754 C.3       1 <1>         0.113377 
     25 C          -0.158861   -2.712632    0.001662 C.3       1 <1>         0.114074 
     26 O          -0.078134   -3.749232   -2.258841 O.3       1 <1>        -0.384091 
     27 O           1.062544   -2.456133   -7.591681 O.3       1 <1>        -0.357274 
     28 O           6.728125    2.206690    0.657320 O.3       1 <1>        -0.359667 
     29 C          -2.455478   -0.439086    0.296120 C.3       1 <1>         0.079556 
     30 C          -1.686246   -2.906684    0.215045 C.3       1 <1>         0.111906 
     31 O           0.383083   -1.587228    0.722833 O.3       1 <1>        -0.386401 
     32 O          -2.845922   -0.648138    1.670835 O.3       1 <1>        -0.346051 
     33 O          -2.132986   -4.175944   -0.313722 O.3       1 <1>        -0.386488 
     34 C          -2.573384    0.472703    2.546618 C.3       1 <1>         0.187899 
     35 C          -3.525593    1.678188    2.321717 C.3       1 <1>         0.134110 
     36 O          -2.800063   -0.106301    3.846754 O.3       1 <1>        -0.343081 
     37 C          -3.280710    2.732862    3.434749 C.3       1 <1>         0.113972 
     38 O          -3.315662    2.288220    1.030248 O.3       1 <1>        -0.384104 
     39 C          -2.586791    0.794194    4.951510 C.3       1 <1>         0.087307 
     40 C          -3.462090    2.074158    4.826108 C.3       1 <1>         0.109478 
     41 O          -1.972030    3.316148    3.267391 O.3       1 <1>        -0.386402 
     42 C          -1.082982    1.083972    5.219507 C.3       1 <1>        -0.036060 
     43 O          -4.863591    1.767964    4.967746 O.3       1 <1>        -0.386579 
     44 H           3.114023   -2.202023   -3.448851 H         1 <1>         0.065076 
     45 H           0.136738    0.860839   -4.426933 H         1 <1>         0.062506 
     46 H          -0.658346   -1.519342   -3.224513 H         1 <1>         0.094163 
     47 H          -0.220452   -0.241812   -6.703413 H         1 <1>         0.064422 
     48 H           5.639844    0.921403   -1.543800 H         1 <1>         0.066947 
     49 H           1.220699   -2.291712   -1.594279 H         1 <1>         0.067108 
     50 H           2.705013   -3.866819   -6.572101 H         1 <1>         0.217422 
     51 H           4.777406    2.844765    2.293725 H         1 <1>         0.066923 
     52 H           2.403314    2.950679    2.874968 H         1 <1>         0.217342 
     53 H          -3.539121   -2.093389   -0.490133 H         1 <1>         0.064677 
     54 H           0.365771   -3.616575    0.356252 H         1 <1>         0.064758 
     55 H           0.443612   -4.491516   -1.973444 H         1 <1>         0.210111 
     56 H           0.480391   -1.996365   -8.186782 H         1 <1>         0.217422 
     57 H           7.294643    1.928738   -0.053569 H         1 <1>         0.217316 
     58 H          -1.439560   -0.053312    0.293441 H         1 <1>         0.058744 
     59 H          -3.109357    0.274819   -0.226655 H         1 <1>         0.058744 
     60 H          -1.916259   -2.896158    1.296144 H         1 <1>         0.064673 
     61 H           0.240416   -1.640955    1.663461 H         1 <1>         0.210005 
     62 H          -1.738379   -4.930650    0.111701 H         1 <1>         0.210004 
     63 H          -1.522694    0.792203    2.454333 H         1 <1>         0.093739 
     64 H          -4.553517    1.280710    2.390078 H         1 <1>         0.067095 
     65 H          -4.039759    3.528162    3.320917 H         1 <1>         0.064757 
     66 H          -3.904688    3.014234    0.855248 H         1 <1>         0.210110 
     67 H          -2.937684    0.231854    5.831477 H         1 <1>         0.062075 
     68 H          -3.179796    2.804051    5.604143 H         1 <1>         0.064584 
     69 H          -1.781720    4.021129    3.878758 H         1 <1>         0.210005 
     70 H          -0.967347    1.622687    6.173985 H         1 <1>         0.025536 
     71 H          -0.537976    0.129845    5.293723 H         1 <1>         0.025536 
     72 H          -0.605953    1.683325    4.433607 H         1 <1>         0.025536 
     73 H          -5.085345    1.387887    5.811955 H         1 <1>         0.210002 
@<TRIPOS>BOND
     1    1    2 2    
     2    1    3 1    
     3    1    4 1    
     4    2    5 1    
     5    2    6 1    
     6    3    7 1    
     7    3    8 2    
     8    4    9 1    
     9    5   10 1    
    10    5   11 2    
    11    6   12 1    
    12    7   13 2    
    13    7   44 1    
    14    8   14 1    
    15    8   45 1    
    16    9   10 1    
    17    9   15 2    
    18   10   16 2    
    19   12   17 1    
    20   12   18 1    
    21   12   46 1    
    22   13   19 1    
    23   13   20 1    
    24   14   19 2    
    25   14   47 1    
    26   15   21 1    
    27   15   48 1    
    28   16   22 1    
    29   16   23 1    
    30   17   24 1    
    31   18   25 1    
    32   18   26 1    
    33   18   49 1    
    34   19   27 1    
    35   20   50 1    
    36   21   22 2    
    37   21   28 1    
    38   22   51 1    
    39   23   52 1    
    40   24   29 1    
    41   24   30 1    
    42   24   53 1    
    43   25   30 1    
    44   25   31 1    
    45   25   54 1    
    46   26   55 1    
    47   27   56 1    
    48   28   57 1    
    49   29   32 1    
    50   29   58 1    
    51   29   59 1    
    52   30   33 1    
    53   30   60 1    
    54   31   61 1    
    55   32   34 1    
    56   33   62 1    
    57   34   35 1    
    58   34   36 1    
    59   34   63 1    
    60   35   37 1    
    61   35   38 1    
    62   35   64 1    
    63   36   39 1    
    64   37   40 1    
    65   37   41 1    
    66   37   65 1    
    67   38   66 1    
    68   39   40 1    
    69   39   42 1    
    70   39   67 1    
    71   40   43 1    
    72   40   68 1    
    73   41   69 1    
    74   42   70 1    
    75   42   71 1    
    76   42   72 1    
    77   43   73 1    
@<TRIPOS>SUBSTRUCTURE
     1 ****        1 TEMP              0 ****  ****    0 ROOT 
@<TRIPOS>NORMAL
@<TRIPOS>FF_PBC
FORCE_FIELD_SETUP_FEATURE Force Field Setup information
v1.0  0 0.000000 0.000000 0.000000 0.000000 0.000000 0.000000 NONE 0 0 0 0 1 0 0 0 0 0 0 0 0
