@<TRIPOS>MOLECULE
MOL004328
   32    34     1     1     0
SMALL
GASTEIGER


@<TRIPOS>ATOM
      1 C           1.681502    0.805852    0.504211 C.3       1 <1>         0.097162 
      2 C           2.041276   -0.417263    1.379596 C.3       1 <1>         0.041564 
      3 C           0.803980   -1.231738    1.619243 C.2       1 <1>         0.170906 
      4 O           0.893181   -2.445081    1.712273 O.2       1 <1>        -0.291783 
      5 C          -0.524827   -0.520869    1.742757 C.ar      1 <1>         0.077223 
      6 C          -1.757071   -1.237963    2.159629 C.ar      1 <1>         0.087967 
      7 C          -2.948350   -0.543449    2.240774 C.ar      1 <1>        -0.001314 
      8 C          -3.008758    0.901299    1.918037 C.ar      1 <1>         0.077503 
      9 C          -1.863301    1.554167    1.536919 C.ar      1 <1>        -0.001026 
     10 C          -0.578239    0.824141    1.447661 C.ar      1 <1>         0.092361 
     11 O           0.570234    1.522703    1.068012 O.3       1 <1>        -0.335586 
     12 C           1.503924    0.442710   -0.984816 C.ar      1 <1>        -0.017820 
     13 C           2.539614    0.870450   -1.962467 C.ar      1 <1>        -0.053661 
     14 C           2.415962    0.585227   -3.286431 C.ar      1 <1>        -0.031601 
     15 C           1.247583   -0.171448   -3.790997 C.ar      1 <1>         0.072600 
     16 C           0.286086   -0.584239   -2.903015 C.ar      1 <1>        -0.031601 
     17 C           0.415243   -0.266042   -1.459919 C.ar      1 <1>        -0.053661 
     18 O           1.153779   -0.447247   -5.158796 O.3       1 <1>        -0.359832 
     19 O          -4.235351    1.566259    2.010039 O.3       1 <1>        -0.359667 
     20 O          -1.692931   -2.601186    2.465121 O.3       1 <1>        -0.358967 
     21 H           2.518364    1.519976    0.570059 H         1 <1>         0.065571 
     22 H           2.824789   -1.017837    0.889747 H         1 <1>         0.037400 
     23 H           2.410412   -0.084475    2.362501 H         1 <1>         0.037400 
     24 H          -3.862446   -1.041521    2.543191 H         1 <1>         0.066923 
     25 H          -1.877045    2.610270    1.293441 H         1 <1>         0.066932 
     26 H           3.412490    1.420899   -1.626340 H         1 <1>         0.062190 
     27 H           3.175613    0.909560   -3.989926 H         1 <1>         0.064329 
     28 H          -0.577779   -1.145000   -3.242940 H         1 <1>         0.064329 
     29 H          -0.368730   -0.604413   -0.798639 H         1 <1>         0.062190 
     30 H           0.405349   -0.978564   -5.407282 H         1 <1>         0.217313 
     31 H          -4.205238    2.495196    1.808129 H         1 <1>         0.217316 
     32 H          -2.526314   -3.013773    2.664127 H         1 <1>         0.217342 
@<TRIPOS>BOND
     1    1    2 1    
     2    1   11 1    
     3    1   12 1    
     4    1   21 1    
     5    2    3 1    
     6    2   22 1    
     7    2   23 1    
     8    3    4 2    
     9    3    5 1    
    10    5    6 1    
    11    5   10 2    
    12    6    7 2    
    13    6   20 1    
    14    7    8 1    
    15    7   24 1    
    16    8    9 2    
    17    8   19 1    
    18    9   10 1    
    19    9   25 1    
    20   10   11 1    
    21   12   13 1    
    22   12   17 2    
    23   13   14 2    
    24   13   26 1    
    25   14   15 1    
    26   14   27 1    
    27   15   16 2    
    28   15   18 1    
    29   16   17 1    
    30   16   28 1    
    31   17   29 1    
    32   18   30 1    
    33   19   31 1    
    34   20   32 1    
@<TRIPOS>SUBSTRUCTURE
     1 ****        1 TEMP              0 ****  ****    0 ROOT 
@<TRIPOS>NORMAL
@<TRIPOS>FF_PBC
FORCE_FIELD_SETUP_FEATURE Force Field Setup information
v1.0  0 0.000000 0.000000 0.000000 0.000000 0.000000 0.000000 NONE 0 0 0 0 1 0 0 0 0 0 0 0 0
