@<TRIPOS>MOLECULE
MOL003949
   23    23     1     1     0
SMALL
GASTEIGER


@<TRIPOS>ATOM
      1 C          -0.191249    0.404435   -0.107326 C.ar      1 <1>         0.067218 
      2 C           0.466649   -0.904478    0.241316 C.ar      1 <1>         0.039882 
      3 C           0.701513    1.603780   -0.425176 C.2       1 <1>         0.295343 
      4 C          -1.630568    0.432863   -0.116461 C.ar      1 <1>        -0.047086 
      5 C          -0.374082   -2.033489    0.539808 C.ar      1 <1>        -0.040098 
      6 N           1.830387   -0.996811    0.267841 N.pl3     1 <1>        -0.346300 
      7 O           0.459060    2.888437   -0.768506 O.3       1 <1>        -0.314713 
      8 O           1.903796    1.410002   -0.370778 O.2       1 <1>        -0.259169 
      9 C          -2.454202   -0.754353    0.197959 C.ar      1 <1>        -0.060905 
     10 C          -1.848979   -1.945247    0.514841 C.ar      1 <1>        -0.059977 
     11 C           2.635898   -2.183198    0.586545 C.3       1 <1>        -0.002402 
     12 C          -0.874835    3.390050   -0.904954 C.3       1 <1>         0.046197 
     13 H          -2.200968    1.310625   -0.350227 H         1 <1>         0.062586 
     14 H           0.015121   -3.004199    0.797587 H         1 <1>         0.063615 
     15 H           2.374295   -0.150128    0.042613 H         1 <1>         0.145760 
     16 H          -3.538030   -0.684663    0.178318 H         1 <1>         0.061780 
     17 H          -2.450706   -2.819192    0.746323 H         1 <1>         0.061816 
     18 H           2.146793   -3.126879    0.841836 H         1 <1>         0.042512 
     19 H           3.283884   -2.386605   -0.280575 H         1 <1>         0.042512 
     20 H           3.285742   -1.923900    1.437213 H         1 <1>         0.042512 
     21 H          -0.764275    4.447534   -1.187591 H         1 <1>         0.052972 
     22 H          -1.422377    3.371788    0.049496 H         1 <1>         0.052972 
     23 H          -1.419593    2.897271   -1.724422 H         1 <1>         0.052972 
@<TRIPOS>BOND
     1    1    2 1    
     2    1    3 1    
     3    1    4 2    
     4    2    5 2    
     5    2    6 1    
     6    3    7 1    
     7    3    8 2    
     8    4    9 1    
     9    4   13 1    
    10    5   10 1    
    11    5   14 1    
    12    6   11 1    
    13    6   15 1    
    14    7   12 1    
    15    9   10 2    
    16    9   16 1    
    17   10   17 1    
    18   11   18 1    
    19   11   19 1    
    20   11   20 1    
    21   12   21 1    
    22   12   22 1    
    23   12   23 1    
@<TRIPOS>SUBSTRUCTURE
     1 ****        1 TEMP              0 ****  ****    0 ROOT 
@<TRIPOS>NORMAL
@<TRIPOS>FF_PBC
FORCE_FIELD_SETUP_FEATURE Force Field Setup information
v1.0  0 0.000000 0.000000 0.000000 0.000000 0.000000 0.000000 NONE 0 0 0 0 1 0 0 0 0 0 0 0 0
