@<TRIPOS>MOLECULE
MOL002295
   19    19     1     1     0
SMALL
GASTEIGER


@<TRIPOS>ATOM
      1 C          -0.856441    1.577328   -0.421654 C.ar      1 <1>        -0.054590 
      2 C          -0.340472    0.231057   -0.062138 C.ar      1 <1>        -0.024850 
      3 C          -1.281370   -0.799222    0.210879 C.ar      1 <1>        -0.054590 
      4 C          -2.737490   -0.529022    0.136592 C.ar      1 <1>        -0.061202 
      5 C          -3.203918    0.745535   -0.203732 C.ar      1 <1>        -0.061723 
      6 C          -2.235914    1.828597   -0.490777 C.ar      1 <1>        -0.061202 
      7 C           1.164681    0.045385   -0.010283 C.2       1 <1>        -0.048943 
      8 C           1.806887   -1.091850    0.293806 C.2       1 <1>         0.010297 
      9 C           3.278978   -1.199965    0.324951 C.2       1 <1>         0.284026 
     10 O           3.792377   -2.270823    0.611104 O.2       1 <1>        -0.260082 
     11 O           4.035268   -0.135778    0.042595 O.3       1 <1>        -0.327929 
     12 H          -0.162814    2.384018   -0.635496 H         1 <1>         0.062344 
     13 H          -0.967984   -1.799433    0.477863 H         1 <1>         0.062344 
     14 H          -3.444199   -1.325491    0.347688 H         1 <1>         0.061776 
     15 H          -4.270014    0.942447   -0.257874 H         1 <1>         0.061759 
     16 H          -2.597290    2.817467   -0.754821 H         1 <1>         0.061776 
     17 H           1.771830    0.920626   -0.242576 H         1 <1>         0.062525 
     18 H           1.282652   -2.011559    0.538079 H         1 <1>         0.067729 
     19 H           4.965035   -0.329117    0.095595 H         1 <1>         0.220537 
@<TRIPOS>BOND
     1    1    2 1    
     2    1    6 2    
     3    1   12 1    
     4    2    3 2    
     5    2    7 1    
     6    3    4 1    
     7    3   13 1    
     8    4    5 2    
     9    4   14 1    
    10    5    6 1    
    11    5   15 1    
    12    6   16 1    
    13    7    8 2    
    14    7   17 1    
    15    8    9 1    
    16    8   18 1    
    17    9   10 2    
    18    9   11 1    
    19   11   19 1    
@<TRIPOS>SUBSTRUCTURE
     1 ****        1 TEMP              0 ****  ****    0 ROOT 
@<TRIPOS>NORMAL
@<TRIPOS>FF_PBC
FORCE_FIELD_SETUP_FEATURE Force Field Setup information
v1.0  0 0.000000 0.000000 0.000000 0.000000 0.000000 0.000000 NONE 0 0 0 0 1 0 0 0 0 0 0 0 0
