@<TRIPOS>MOLECULE
MOL002196
   29    29     1     1     0
SMALL
GASTEIGER


@<TRIPOS>ATOM
      1 C          -0.435649   -2.380048    0.633649 C.ar      1 <1>         0.017392 
      2 C           0.486701   -1.217669    0.325370 C.2       1 <1>         0.163165 
      3 C           0.153241   -3.696919    0.985570 C.ar      1 <1>        -0.051266 
      4 C          -1.856201   -2.251524    0.597160 C.ar      1 <1>        -0.051266 
      5 C          -0.042405    0.148569   -0.039639 C.3       1 <1>         0.010458 
      6 O           1.693433   -1.395557    0.374737 O.2       1 <1>        -0.292060 
      7 C          -0.674870   -4.798509    1.277793 C.ar      1 <1>        -0.061097 
      8 C          -2.721292   -3.415157    0.905860 C.ar      1 <1>        -0.061097 
      9 C           1.086669    1.179928   -0.312688 C.3       1 <1>        -0.046046 
     10 C          -2.148616   -4.653627    1.236856 C.ar      1 <1>        -0.061720 
     11 C           0.507307    2.572334   -0.684782 C.3       1 <1>        -0.052912 
     12 C           1.639533    3.599931   -0.956797 C.3       1 <1>        -0.055900 
     13 C           1.061802    4.990403   -1.328403 C.3       1 <1>        -0.065276 
     14 H           1.231340   -3.816404    1.019115 H         1 <1>         0.062450 
     15 H          -2.326103   -1.308225    0.344998 H         1 <1>         0.062450 
     16 H          -0.665332    0.051214   -0.942528 H         1 <1>         0.034507 
     17 H          -0.668146    0.513000    0.790047 H         1 <1>         0.034507 
     18 H          -0.234712   -5.757033    1.533960 H         1 <1>         0.061777 
     19 H          -3.801000   -3.307473    0.875456 H         1 <1>         0.061777 
     20 H           1.715678    1.274480    0.588140 H         1 <1>         0.026937 
     21 H           1.718513    0.814084   -1.139136 H         1 <1>         0.026937 
     22 H          -2.782362   -5.505385    1.462824 H         1 <1>         0.061759 
     23 H          -0.121729    2.477830   -1.585248 H         1 <1>         0.026531 
     24 H          -0.124598    2.938028    0.141305 H         1 <1>         0.026531 
     25 H           2.270599    3.700706   -0.057939 H         1 <1>         0.026265 
     26 H           2.273493    3.240463   -1.784579 H         1 <1>         0.026265 
     27 H           1.880575    5.702915   -1.516945 H         1 <1>         0.022978 
     28 H           0.443423    4.919434   -2.236873 H         1 <1>         0.022978 
     29 H           0.440509    5.380512   -0.507088 H         1 <1>         0.022978 
@<TRIPOS>BOND
     1    1    2 1    
     2    1    3 1    
     3    1    4 2    
     4    2    5 1    
     5    2    6 2    
     6    3    7 2    
     7    3   14 1    
     8    4    8 1    
     9    4   15 1    
    10    5    9 1    
    11    5   16 1    
    12    5   17 1    
    13    7   10 1    
    14    7   18 1    
    15    8   10 2    
    16    8   19 1    
    17    9   11 1    
    18    9   20 1    
    19    9   21 1    
    20   10   22 1    
    21   11   12 1    
    22   11   23 1    
    23   11   24 1    
    24   12   13 1    
    25   12   25 1    
    26   12   26 1    
    27   13   27 1    
    28   13   28 1    
    29   13   29 1    
@<TRIPOS>SUBSTRUCTURE
     1 ****        1 TEMP              0 ****  ****    0 ROOT 
@<TRIPOS>NORMAL
@<TRIPOS>FF_PBC
FORCE_FIELD_SETUP_FEATURE Force Field Setup information
v1.0  0 0.000000 0.000000 0.000000 0.000000 0.000000 0.000000 NONE 0 0 0 0 1 0 0 0 0 0 0 0 0
