@<TRIPOS>MOLECULE
MOL010621
   21    20     1     1     0
SMALL
GASTEIGER


@<TRIPOS>ATOM
      1 C          -4.835082    0.335802    0.000068 C.2       1 <1>         0.143100 
      2 C          -3.524415   -0.340107    0.000015 C.2       1 <1>        -0.022455 
      3 C          -2.357995    0.318292    0.000023 C.2       1 <1>        -0.059033 
      4 C          -1.048851   -0.368102   -0.000036 C.2       1 <1>        -0.065593 
      5 C           0.118660    0.288443   -0.000109 C.2       1 <1>        -0.084014 
      6 C           1.439939   -0.443387   -0.000172 C.3       1 <1>        -0.034717 
      7 C           2.646839    0.532865    0.000126 C.3       1 <1>        -0.052460 
      8 C           3.994485   -0.234686   -0.000009 C.3       1 <1>        -0.064998 
      9 O          -5.859962   -0.326295    0.000056 O.2       1 <1>        -0.296320 
     10 H          -4.913706    1.422610    0.000109 H         1 <1>         0.107515 
     11 H          -3.532551   -1.430407   -0.000020 H         1 <1>         0.064938 
     12 H          -2.369768    1.408908    0.000058 H         1 <1>         0.061844 
     13 H          -1.030552   -1.458917   -0.000017 H         1 <1>         0.061449 
     14 H           0.117759    1.379226   -0.000133 H         1 <1>         0.057203 
     15 H           1.488533   -1.085522   -0.894428 H         1 <1>         0.030733 
     16 H           1.488434   -1.085940    0.893773 H         1 <1>         0.030733 
     17 H           2.597159    1.176709    0.894418 H         1 <1>         0.026558 
     18 H           2.597248    1.177146   -0.893882 H         1 <1>         0.026558 
     19 H           4.835665    0.476492    0.000195 H         1 <1>         0.022987 
     20 H           4.074118   -0.870999   -0.895226 H         1 <1>         0.022987 
     21 H           4.074044   -0.871432    0.894893 H         1 <1>         0.022987 
@<TRIPOS>BOND
     1    1    2 1    
     2    1    9 2    
     3    1   10 1    
     4    2    3 2    
     5    2   11 1    
     6    3    4 1    
     7    3   12 1    
     8    4    5 2    
     9    4   13 1    
    10    5    6 1    
    11    5   14 1    
    12    6    7 1    
    13    6   15 1    
    14    6   16 1    
    15    7    8 1    
    16    7   17 1    
    17    7   18 1    
    18    8   19 1    
    19    8   20 1    
    20    8   21 1    
@<TRIPOS>SUBSTRUCTURE
     1 ****        1 TEMP              0 ****  ****    0 ROOT 
@<TRIPOS>NORMAL
@<TRIPOS>FF_PBC
FORCE_FIELD_SETUP_FEATURE Force Field Setup information
v1.0  0 0.000000 0.000000 0.000000 0.000000 0.000000 0.000000 NONE 0 0 0 0 1 0 0 0 0 0 0 0 0
