@<TRIPOS>MOLECULE
MOL001927
   62    66     1     1     0
SMALL
GASTEIGER


@<TRIPOS>ATOM
      1 O          -0.521704    3.046569   -1.812855 O.3       1 <1>        -0.305276 
      2 O          -0.172146    0.259126   -0.354776 O.3       1 <1>        -0.338158 
      3 O          -3.966870    3.911902    0.749803 O.3       1 <1>        -0.391381 
      4 O           1.799916    1.618022    0.692295 O.3       1 <1>        -0.310257 
      5 O           0.911412    4.254381   -0.586205 O.2       1 <1>        -0.264131 
      6 O          -1.505334   -1.379423    0.652783 O.3       1 <1>        -0.340511 
      7 O           1.095827   -1.736796   -1.978866 O.3       1 <1>        -0.384104 
      8 O           1.068010   -4.365186   -0.772463 O.3       1 <1>        -0.386401 
      9 O          -1.441495   -5.103876    0.533871 O.3       1 <1>        -0.386488 
     10 O           2.965496    1.454184    2.595383 O.2       1 <1>        -0.259226 
     11 O          -4.019134   -2.015520    1.954136 O.3       1 <1>        -0.392366 
     12 C          -1.096942    1.356246   -0.217191 C.3       1 <1>         0.119165 
     13 C          -0.410515    2.549978    0.482929 C.3       1 <1>         0.116612 
     14 C          -1.785810    2.835816    1.140860 C.3       1 <1>         0.007476 
     15 C          -1.570988    2.119366   -1.502627 C.3       1 <1>         0.108401 
     16 C          -2.132372    1.340816    0.938449 C.3       1 <1>        -0.013464 
     17 C          -2.656049    3.709789    0.193816 C.3       1 <1>         0.062008 
     18 C          -2.816544    3.000099   -1.183535 C.3       1 <1>         0.005750 
     19 C           0.060402    3.385156   -0.669424 C.2       1 <1>         0.274469 
     20 C           0.730187    2.186747    1.469896 C.3       1 <1>         0.075174 
     21 C          -1.821524    1.246009   -2.755408 C.3       1 <1>        -0.032376 
     22 C          -0.756482   -1.043870   -0.531915 C.3       1 <1>         0.188684 
     23 C           0.428091   -2.023614   -0.732785 C.3       1 <1>         0.134134 
     24 C          -0.074219   -3.488807   -0.737190 C.3       1 <1>         0.114062 
     25 C          -2.067685   -2.707134    0.624968 C.3       1 <1>         0.113005 
     26 C          -0.930257   -3.757090    0.527035 C.3       1 <1>         0.111896 
     27 C           2.874130    1.239665    1.396037 C.2       1 <1>         0.293839 
     28 C          -2.895764   -2.913091    1.920508 C.3       1 <1>         0.073015 
     29 C           3.988033    0.522168    0.666034 C.ar      1 <1>         0.046475 
     30 C           5.195742    0.225338    1.302624 C.ar      1 <1>        -0.048875 
     31 C           3.789291    0.123854   -0.750911 C.ar      1 <1>        -0.048875 
     32 C           6.273356   -0.483159    0.571817 C.ar      1 <1>        -0.061020 
     33 C           4.805065   -0.549164   -1.446805 C.ar      1 <1>        -0.061020 
     34 C           6.083639   -0.861824   -0.766261 C.ar      1 <1>        -0.061719 
     35 H          -1.744082    3.193003    2.182876 H         1 <1>         0.033851 
     36 H          -3.170512    1.088576    0.680418 H         1 <1>         0.029798 
     37 H          -1.809551    0.742838    1.803874 H         1 <1>         0.029798 
     38 H          -2.157549    4.686865    0.061430 H         1 <1>         0.059710 
     39 H          -2.976249    3.746781   -1.978331 H         1 <1>         0.031902 
     40 H          -3.713461    2.362110   -1.168072 H         1 <1>         0.031902 
     41 H           0.392104    1.468857    2.233556 H         1 <1>         0.057758 
     42 H           1.059150    3.112379    1.969585 H         1 <1>         0.057758 
     43 H          -2.659875    0.553423   -2.590925 H         1 <1>         0.025841 
     44 H          -2.066014    1.892405   -3.611985 H         1 <1>         0.025841 
     45 H          -0.910939    0.680382   -3.004540 H         1 <1>         0.025841 
     46 H          -1.395954   -1.090845   -1.423060 H         1 <1>         0.093762 
     47 H          -3.957347    4.357025    1.591799 H         1 <1>         0.209790 
     48 H           1.122455   -1.879410    0.113376 H         1 <1>         0.067095 
     49 H          -0.688164   -3.640589   -1.641439 H         1 <1>         0.064758 
     50 H          -2.758236   -2.814404   -0.228523 H         1 <1>         0.064668 
     51 H          -0.276366   -3.651990    1.407876 H         1 <1>         0.064673 
     52 H           1.840829   -2.313928   -2.121720 H         1 <1>         0.210110 
     53 H          -3.297786   -3.937987    1.955949 H         1 <1>         0.058370 
     54 H          -2.255954   -2.760943    2.805998 H         1 <1>         0.058370 
     55 H           0.818846   -5.285121   -0.756735 H         1 <1>         0.210005 
     56 H          -2.017306   -5.297919   -0.199099 H         1 <1>         0.210004 
     57 H          -3.747351   -1.103368    1.928475 H         1 <1>         0.209508 
     58 H           5.354180    0.512489    2.336733 H         1 <1>         0.062527 
     59 H           2.853951    0.353043   -1.252752 H         1 <1>         0.062527 
     60 H           7.208791   -0.707040    1.074798 H         1 <1>         0.061778 
     61 H           4.657338   -0.840192   -2.482415 H         1 <1>         0.061778 
     62 H           6.870792   -1.380517   -1.303972 H         1 <1>         0.061759 
@<TRIPOS>BOND
     1   15    1 1    
     2    1   19 1    
     3    2   12 1    
     4   22    2 1    
     5   17    3 1    
     6    3   47 1    
     7   20    4 1    
     8    4   27 1    
     9   19    5 2    
    10    6   22 1    
    11   25    6 1    
    12   23    7 1    
    13    7   52 1    
    14   24    8 1    
    15    8   55 1    
    16   26    9 1    
    17    9   56 1    
    18   27   10 2    
    19   28   11 1    
    20   11   57 1    
    21   12   13 1    
    22   12   15 1    
    23   12   16 1    
    24   13   14 1    
    25   13   19 1    
    26   13   20 1    
    27   16   14 1    
    28   14   17 1    
    29   14   35 1    
    30   15   18 1    
    31   15   21 1    
    32   16   36 1    
    33   16   37 1    
    34   18   17 1    
    35   17   38 1    
    36   18   39 1    
    37   18   40 1    
    38   20   41 1    
    39   20   42 1    
    40   21   43 1    
    41   21   44 1    
    42   21   45 1    
    43   22   23 1    
    44   22   46 1    
    45   24   23 1    
    46   23   48 1    
    47   26   24 1    
    48   24   49 1    
    49   25   26 1    
    50   25   28 1    
    51   25   50 1    
    52   26   51 1    
    53   27   29 1    
    54   28   53 1    
    55   28   54 1    
    56   29   30 2    
    57   29   31 1    
    58   30   32 1    
    59   30   58 1    
    60   31   33 2    
    61   31   59 1    
    62   32   34 2    
    63   32   60 1    
    64   33   34 1    
    65   33   61 1    
    66   34   62 1    
@<TRIPOS>SUBSTRUCTURE
     1 ****        2 TEMP              0 ****  ****    0 ROOT 
@<TRIPOS>NORMAL
@<TRIPOS>FF_PBC
FORCE_FIELD_SETUP_FEATURE Force Field Setup information
v1.0  0 0.000000 0.000000 0.000000 0.000000 0.000000 0.000000 NONE 0 0 0 0 1 0 0 0 0 0 0 0 0
