@<TRIPOS>MOLECULE
MOL000268
   26    27     1     1     0
SMALL
GASTEIGER


@<TRIPOS>ATOM
      1 C          -0.264508   -0.328648    0.185686 C.3       1 <1>        -0.019563 
      2 C           1.205386   -0.741661    0.408156 C.3       1 <1>        -0.013714 
      3 C           0.066623   -1.757328    0.668245 C.3       1 <1>        -0.039534 
      4 C          -0.938493    0.603488    1.235201 C.3       1 <1>        -0.040487 
      5 C          -0.499405   -0.134937   -1.335307 C.3       1 <1>        -0.042882 
      6 C           1.777427   -0.661426   -0.978598 C.2       1 <1>        -0.072955 
      7 C          -0.496242    2.083451    1.071772 C.3       1 <1>        -0.062143 
      8 C          -2.479915    0.470103    1.133334 C.3       1 <1>        -0.062143 
      9 C           0.730346   -0.744872   -2.054083 C.3       1 <1>        -0.031186 
     10 C           3.085306   -0.520424   -1.220251 C.2       1 <1>        -0.099166 
     11 H           1.681003   -0.224197    1.255702 H         1 <1>         0.035115 
     12 H          -0.075074   -2.015982    1.728491 H         1 <1>         0.027674 
     13 H          -0.004770   -2.590766   -0.045648 H         1 <1>         0.027674 
     14 H          -0.636354    0.286873    2.248985 H         1 <1>         0.030099 
     15 H          -0.538145    0.940095   -1.562673 H         1 <1>         0.027389 
     16 H          -1.444218   -0.599484   -1.657948 H         1 <1>         0.027389 
     17 H          -0.873647    2.684331    1.914140 H         1 <1>         0.023250 
     18 H           0.602225    2.154203    1.059844 H         1 <1>         0.023250 
     19 H          -0.887096    2.524366    0.143698 H         1 <1>         0.023250 
     20 H          -2.970864    1.079812    1.907851 H         1 <1>         0.023250 
     21 H          -2.777204   -0.580993    1.273358 H         1 <1>         0.023250 
     22 H          -2.832969    0.806466    0.146717 H         1 <1>         0.023250 
     23 H           0.559664   -1.804842   -2.299134 H         1 <1>         0.031017 
     24 H           0.999275   -0.204174   -2.976084 H         1 <1>         0.031017 
     25 H           3.463442   -0.462945   -2.240345 H         1 <1>         0.053449 
     26 H           3.797470   -0.461495   -0.397860 H         1 <1>         0.053449 
@<TRIPOS>BOND
     1    1    2 1    
     2    1    3 1    
     3    1    4 1    
     4    1    5 1    
     5    2    3 1    
     6    2    6 1    
     7    2   11 1    
     8    3   12 1    
     9    3   13 1    
    10    4    7 1    
    11    4    8 1    
    12    4   14 1    
    13    5    9 1    
    14    5   15 1    
    15    5   16 1    
    16    6    9 1    
    17    6   10 2    
    18    7   17 1    
    19    7   18 1    
    20    7   19 1    
    21    8   20 1    
    22    8   21 1    
    23    8   22 1    
    24    9   23 1    
    25    9   24 1    
    26   10   25 1    
    27   10   26 1    
@<TRIPOS>SUBSTRUCTURE
     1 ****        1 TEMP              0 ****  ****    0 ROOT 
@<TRIPOS>NORMAL
@<TRIPOS>FF_PBC
FORCE_FIELD_SETUP_FEATURE Force Field Setup information
v1.0  0 0.000000 0.000000 0.000000 0.000000 0.000000 0.000000 NONE 0 0 0 0 1 0 0 0 0 0 0 0 0
