@<TRIPOS>MOLECULE
MOL004599
   32    31     1     1     0
SMALL
GASTEIGER


@<TRIPOS>ATOM
      1 C          -1.097401    0.313936    0.282598 C.3       1 <1>        -0.034881 
      2 C           0.368903    0.824023    0.025020 C.3       1 <1>        -0.045291 
      3 C           1.543464   -0.217547    0.064885 C.3       1 <1>        -0.043644 
      4 C          -2.059733    1.515538   -0.031148 C.3       1 <1>        -0.050714 
      5 C          -1.446981   -0.898584   -0.630580 C.3       1 <1>        -0.059811 
      6 C          -1.261086   -0.111967    1.775712 C.3       1 <1>        -0.059811 
      7 C           1.918281   -0.712628   -1.370429 C.3       1 <1>        -0.053295 
      8 C           2.788143    0.405720    0.765344 C.3       1 <1>        -0.062406 
      9 C          -3.578798    1.301581    0.225901 C.3       1 <1>        -0.064791 
     10 C           2.867984   -1.941964   -1.391323 C.3       1 <1>        -0.065034 
     11 H           0.550383    1.602227    0.783129 H         1 <1>         0.027300 
     12 H           0.416622    1.335897   -0.949115 H         1 <1>         0.027300 
     13 H           1.261084   -1.092584    0.667540 H         1 <1>         0.029821 
     14 H          -1.754876    2.387430    0.571524 H         1 <1>         0.026779 
     15 H          -1.949829    1.794574   -1.092400 H         1 <1>         0.026779 
     16 H          -2.461502   -1.270903   -0.433010 H         1 <1>         0.023499 
     17 H          -0.767041   -1.742867   -0.450849 H         1 <1>         0.023499 
     18 H          -1.389198   -0.611373   -1.691104 H         1 <1>         0.023499 
     19 H          -2.257700   -0.536629    1.961903 H         1 <1>         0.023499 
     20 H          -0.534697   -0.880759    2.069277 H         1 <1>         0.023499 
     21 H          -1.125591    0.753523    2.442091 H         1 <1>         0.023499 
     22 H           2.387500    0.109973   -1.934804 H         1 <1>         0.026521 
     23 H           1.009762   -1.004093   -1.916769 H         1 <1>         0.026521 
     24 H           3.611168   -0.316541    0.859373 H         1 <1>         0.023242 
     25 H           2.532550    0.734521    1.785162 H         1 <1>         0.023242 
     26 H           3.148487    1.277534    0.197835 H         1 <1>         0.023242 
     27 H          -4.124034    2.219732   -0.046621 H         1 <1>         0.022994 
     28 H          -3.988762    0.484270   -0.383910 H         1 <1>         0.022994 
     29 H          -3.789020    1.099622    1.285980 H         1 <1>         0.022994 
     30 H           2.992901   -2.298197   -2.426538 H         1 <1>         0.022986 
     31 H           2.445775   -2.763989   -0.792700 H         1 <1>         0.022986 
     32 H           3.866589   -1.695836   -1.003229 H         1 <1>         0.022986 
@<TRIPOS>BOND
     1    1    2 1    
     2    1    4 1    
     3    1    5 1    
     4    1    6 1    
     5    2    3 1    
     6    2   11 1    
     7    2   12 1    
     8    3    7 1    
     9    3    8 1    
    10    3   13 1    
    11    4    9 1    
    12    4   14 1    
    13    4   15 1    
    14    5   16 1    
    15    5   17 1    
    16    5   18 1    
    17    6   19 1    
    18    6   20 1    
    19    6   21 1    
    20    7   10 1    
    21    7   22 1    
    22    7   23 1    
    23    8   24 1    
    24    8   25 1    
    25    8   26 1    
    26    9   27 1    
    27    9   28 1    
    28    9   29 1    
    29   10   30 1    
    30   10   31 1    
    31   10   32 1    
@<TRIPOS>SUBSTRUCTURE
     1 ****        1 TEMP              0 ****  ****    0 ROOT 
@<TRIPOS>NORMAL
@<TRIPOS>FF_PBC
FORCE_FIELD_SETUP_FEATURE Force Field Setup information
v1.0  0 0.000000 0.000000 0.000000 0.000000 0.000000 0.000000 NONE 0 0 0 0 1 0 0 0 0 0 0 0 0
