@<TRIPOS>MOLECULE
MOL005346
   82    85     1     1     0
SMALL
GASTEIGER


@<TRIPOS>ATOM
      1 C          -4.299832   -2.048203   -2.526409 C.3       1 <1>        -0.025831 
      2 C          -5.129232   -2.987148   -1.621208 C.3       1 <1>         0.060637 
      3 C          -4.194868   -3.741689   -0.603668 C.3       1 <1>        -0.005589 
      4 C          -3.590594   -0.916839   -1.722730 C.3       1 <1>        -0.044729 
      5 C          -3.013884   -1.337896   -0.309685 C.3       1 <1>        -0.025167 
      6 C          -2.881028   -2.906211   -0.304404 C.3       1 <1>        -0.027844 
      7 C          -2.048468   -3.411906    0.918079 C.3       1 <1>        -0.048618 
      8 C          -0.621713   -2.787631    0.928506 C.3       1 <1>        -0.046558 
      9 C          -1.564103   -0.700264   -0.137361 C.3       1 <1>        -0.027109 
     10 C          -0.601714   -1.224125    1.007051 C.3       1 <1>        -0.022899 
     11 C          -0.068969    1.370246   -0.548560 C.3       1 <1>         0.059398 
     12 C          -1.510267    0.858690   -0.264388 C.3       1 <1>        -0.022703 
     13 C           0.831403    0.910171    0.622075 C.3       1 <1>        -0.002573 
     14 C           0.873260   -0.644497    0.762048 C.3       1 <1>        -0.020677 
     15 C           1.894105   -0.695687    1.944572 C.3       1 <1>        -0.046215 
     16 C           2.996809    0.346475    1.579625 C.3       1 <1>        -0.045648 
     17 C           2.306927    1.402817    0.661043 C.3       1 <1>        -0.014452 
     18 C           2.622016    2.821973    1.126503 C.2       1 <1>        -0.072794 
     19 C           3.648794    3.534342    0.629776 C.2       1 <1>        -0.081014 
     20 C           1.736594    3.420664    2.202755 C.3       1 <1>        -0.043505 
     21 C           4.642615    3.039583   -0.395906 C.3       1 <1>        -0.016057 
     22 C           5.932243    3.821862   -0.282206 C.2       1 <1>        -0.081549 
     23 C           6.257373    4.889760   -1.029099 C.2       1 <1>        -0.079326 
     24 C           7.591711    5.586865   -0.871822 C.3       1 <1>        -0.044040 
     25 C           5.331765    5.473750   -2.073639 C.3       1 <1>        -0.044040 
     26 C          -3.795364   -5.107899   -1.268929 C.3       1 <1>        -0.057190 
     27 C          -4.995273   -4.128029    0.680272 C.3       1 <1>        -0.057190 
     28 C          -4.019597   -0.831997    0.783229 C.3       1 <1>        -0.059018 
     29 C          -1.098890   -0.845571    2.449368 C.3       1 <1>        -0.058782 
     30 C           1.614516   -1.341283   -0.446646 C.3       1 <1>        -0.058702 
     31 O          -6.195821   -2.198221   -1.061733 O.3       1 <1>        -0.391248 
     32 O          -0.120685    2.805655   -0.636512 O.3       1 <1>        -0.391466 
     33 H          -4.964118   -1.593218   -3.281682 H         1 <1>         0.029037 
     34 H          -3.562634   -2.653567   -3.079812 H         1 <1>         0.029037 
     35 H          -5.634122   -3.708678   -2.290154 H         1 <1>         0.059852 
     36 H          -2.813856   -0.564277   -2.420455 H         1 <1>         0.027149 
     37 H          -4.286339   -0.068593   -1.611857 H         1 <1>         0.027149 
     38 H          -2.225858   -3.112331   -1.165582 H         1 <1>         0.031210 
     39 H          -1.902731   -4.501005    0.856929 H         1 <1>         0.026846 
     40 H          -2.566686   -3.237148    1.867752 H         1 <1>         0.026846 
     41 H          -0.174739   -3.147230   -0.007836 H         1 <1>         0.027087 
     42 H          -0.027024   -3.213220    1.753345 H         1 <1>         0.027087 
     43 H          -1.083706   -1.040272   -1.058827 H         1 <1>         0.031235 
     44 H           0.297669    0.961959   -1.505912 H         1 <1>         0.059628 
     45 H          -2.143519    1.233760   -1.081144 H         1 <1>         0.029314 
     46 H          -1.867344    1.341375    0.655752 H         1 <1>         0.029314 
     47 H           0.375945    1.344879    1.514385 H         1 <1>         0.033685 
     48 H           2.300938   -1.701631    2.134494 H         1 <1>         0.027097 
     49 H           1.461214   -0.331863    2.887749 H         1 <1>         0.027097 
     50 H           3.414661    0.805781    2.491791 H         1 <1>         0.027124 
     51 H           3.839878   -0.133840    1.057187 H         1 <1>         0.027124 
     52 H           2.649650    1.324890   -0.379798 H         1 <1>         0.034917 
     53 H           3.802846    4.557018    0.977507 H         1 <1>         0.057470 
     54 H           1.627881    2.712686    3.038016 H         1 <1>         0.027445 
     55 H           2.150250    4.350156    2.621857 H         1 <1>         0.027445 
     56 H           0.743721    3.660283    1.794931 H         1 <1>         0.027445 
     57 H           4.894969    1.981205   -0.226868 H         1 <1>         0.034978 
     58 H           4.199952    3.119072   -1.399634 H         1 <1>         0.034978 
     59 H           6.634800    3.471305    0.475745 H         1 <1>         0.057453 
     60 H           8.256896    5.086772   -0.151596 H         1 <1>         0.027427 
     61 H           7.428680    6.618967   -0.526792 H         1 <1>         0.027427 
     62 H           8.103833    5.614928   -1.845541 H         1 <1>         0.027427 
     63 H           5.596573    6.517817   -2.299497 H         1 <1>         0.027427 
     64 H           5.414489    4.886854   -3.000514 H         1 <1>         0.027427 
     65 H           4.285874    5.470499   -1.732696 H         1 <1>         0.027427 
     66 H          -3.142704   -5.714388   -0.627216 H         1 <1>         0.023587 
     67 H          -4.684566   -5.723224   -1.477884 H         1 <1>         0.023587 
     68 H          -3.273936   -4.956258   -2.225958 H         1 <1>         0.023587 
     69 H          -5.887969   -4.712489    0.409258 H         1 <1>         0.023587 
     70 H          -4.396048   -4.755460    1.355721 H         1 <1>         0.023587 
     71 H          -5.335905   -3.253425    1.245209 H         1 <1>         0.023587 
     72 H          -3.829243    0.213920    1.050579 H         1 <1>         0.023525 
     73 H          -5.059248   -0.859376    0.445363 H         1 <1>         0.023525 
     74 H          -4.018008   -1.418347    1.702845 H         1 <1>         0.023525 
     75 H          -1.104555    0.226004    2.670856 H         1 <1>         0.023533 
     76 H          -2.107766   -1.174002    2.669446 H         1 <1>         0.023533 
     77 H          -0.492632   -1.347832    3.215577 H         1 <1>         0.023533 
     78 H           1.035073   -1.408929   -1.372704 H         1 <1>         0.023534 
     79 H           1.913994   -2.361812   -0.167720 H         1 <1>         0.023534 
     80 H           2.552546   -0.866545   -0.747968 H         1 <1>         0.023534 
     81 H          -6.862189   -2.696108   -0.599896 H         1 <1>         0.209800 
     82 H           0.723593    3.199190   -0.832642 H         1 <1>         0.209789 
@<TRIPOS>BOND
     1    1    2 1    
     2    1    4 1    
     3    1   33 1    
     4    1   34 1    
     5    2    3 1    
     6    2   31 1    
     7    2   35 1    
     8    3    6 1    
     9    3   26 1    
    10    3   27 1    
    11    4    5 1    
    12    4   36 1    
    13    4   37 1    
    14    5    6 1    
    15    5    9 1    
    16    5   28 1    
    17    6    7 1    
    18    6   38 1    
    19    7    8 1    
    20    7   39 1    
    21    7   40 1    
    22    8   10 1    
    23    8   41 1    
    24    8   42 1    
    25    9   10 1    
    26    9   12 1    
    27    9   43 1    
    28   10   14 1    
    29   10   29 1    
    30   12   11 1    
    31   11   13 1    
    32   11   32 1    
    33   11   44 1    
    34   12   45 1    
    35   12   46 1    
    36   13   14 1    
    37   13   17 1    
    38   13   47 1    
    39   14   15 1    
    40   14   30 1    
    41   15   16 1    
    42   15   48 1    
    43   15   49 1    
    44   16   17 1    
    45   16   50 1    
    46   16   51 1    
    47   17   18 1    
    48   17   52 1    
    49   18   19 2    
    50   18   20 1    
    51   19   21 1    
    52   19   53 1    
    53   20   54 1    
    54   20   55 1    
    55   20   56 1    
    56   21   22 1    
    57   21   57 1    
    58   21   58 1    
    59   22   23 2    
    60   22   59 1    
    61   23   24 1    
    62   23   25 1    
    63   24   60 1    
    64   24   61 1    
    65   24   62 1    
    66   25   63 1    
    67   25   64 1    
    68   25   65 1    
    69   26   66 1    
    70   26   67 1    
    71   26   68 1    
    72   27   69 1    
    73   27   70 1    
    74   27   71 1    
    75   28   72 1    
    76   28   73 1    
    77   28   74 1    
    78   29   75 1    
    79   29   76 1    
    80   29   77 1    
    81   30   78 1    
    82   30   79 1    
    83   30   80 1    
    84   31   81 1    
    85   32   82 1    
@<TRIPOS>SUBSTRUCTURE
     1 ****        1 TEMP              0 ****  ****    0 ROOT 
@<TRIPOS>NORMAL
@<TRIPOS>FF_PBC
FORCE_FIELD_SETUP_FEATURE Force Field Setup information
v1.0  0 0.000000 0.000000 0.000000 0.000000 0.000000 0.000000 NONE 0 0 0 0 1 0 0 0 0 0 0 0 0
