@<TRIPOS>MOLECULE
MOL001941
   34    36     1     1     0
SMALL
GASTEIGER


@<TRIPOS>ATOM
      1 O          -0.349614   -0.849076    0.652627 O.3       1 <1>        -0.330632 
      2 O           1.822307   -2.929332    0.498643 O.2       1 <1>        -0.209540 
      3 O           0.405008    1.870070    0.274837 O.3       1 <1>        -0.270853 
      4 O          -0.106296    4.008795    0.148513 O.2       1 <1>        -0.259478 
      5 C           2.019257   -1.554528    0.330847 C.ar      1 <1>         0.394936 
      6 C           0.979062   -0.501801    0.398007 C.ar      1 <1>         0.213367 
      7 C           3.317249   -1.219614    0.083772 C.ar      1 <1>         0.090557 
      8 C           1.365052    0.858116    0.206183 C.ar      1 <1>         0.132782 
      9 C           2.787842    1.191535   -0.063754 C.ar      1 <1>         0.009489 
     10 C           3.771334    0.171642   -0.128874 C.ar      1 <1>        -0.035520 
     11 C           4.062987   -2.483096    0.086891 C.ar      1 <1>         0.050798 
     12 C           3.140870    2.644759   -0.263202 C.2       1 <1>        -0.046335 
     13 C          -1.264119   -0.690411   -0.446808 C.3       1 <1>         0.073072 
     14 C           3.114596   -3.446395    0.339710 C.ar      1 <1>         0.322759 
     15 C           2.153968    3.541664   -0.183204 C.2       1 <1>         0.010954 
     16 C          -2.611503   -1.180917    0.024479 C.2       1 <1>        -0.059462 
     17 C           0.756673    3.149436    0.089652 C.2       1 <1>         0.291658 
     18 C          -3.751538   -0.470404    0.036155 C.2       1 <1>        -0.077462 
     19 C          -5.049443   -1.071066    0.533164 C.3       1 <1>        -0.043978 
     20 C          -3.828251    0.964461   -0.437921 C.3       1 <1>        -0.043978 
     21 H           4.814338    0.397383   -0.325937 H         1 <1>         0.063314 
     22 H           5.126921   -2.622111   -0.074554 H         1 <1>         0.071340 
     23 H           4.168849    2.949157   -0.465269 H         1 <1>         0.062607 
     24 H          -1.283915    0.354038   -0.787484 H         1 <1>         0.060928 
     25 H          -0.945801   -1.320554   -1.292624 H         1 <1>         0.060928 
     26 H           3.340814   -4.507461    0.410005 H         1 <1>         0.176011 
     27 H           2.369867    4.601471   -0.321433 H         1 <1>         0.067748 
     28 H          -2.620314   -2.210859    0.382612 H         1 <1>         0.059424 
     29 H          -5.423686   -0.480362    1.383006 H         1 <1>         0.027428 
     30 H          -5.796787   -1.044562   -0.274205 H         1 <1>         0.027428 
     31 H          -4.942566   -2.115173    0.864221 H         1 <1>         0.027428 
     32 H          -4.848526    1.368459   -0.351091 H         1 <1>         0.027428 
     33 H          -3.163395    1.597238    0.169507 H         1 <1>         0.027428 
     34 H          -3.530841    1.028699   -1.495366 H         1 <1>         0.027428 
@<TRIPOS>BOND
     1    6    1 1    
     2    1   13 1    
     3    5    2 1    
     4    2   14 1    
     5    8    3 1    
     6    3   17 1    
     7   17    4 2    
     8    6    5 1    
     9    5    7 2    
    10    6    8 2    
    11    7   10 1    
    12    7   11 1    
    13    8    9 1    
    14    9   10 2    
    15    9   12 1    
    16   10   21 1    
    17   11   14 2    
    18   11   22 1    
    19   12   15 2    
    20   12   23 1    
    21   13   16 1    
    22   13   24 1    
    23   13   25 1    
    24   14   26 1    
    25   15   17 1    
    26   15   27 1    
    27   16   18 2    
    28   16   28 1    
    29   18   19 1    
    30   18   20 1    
    31   19   29 1    
    32   19   30 1    
    33   19   31 1    
    34   20   32 1    
    35   20   33 1    
    36   20   34 1    
@<TRIPOS>SUBSTRUCTURE
     1 ****        2 TEMP              0 ****  ****    0 ROOT 
@<TRIPOS>NORMAL
@<TRIPOS>FF_PBC
FORCE_FIELD_SETUP_FEATURE Force Field Setup information
v1.0  0 0.000000 0.000000 0.000000 0.000000 0.000000 0.000000 NONE 0 0 0 0 1 0 0 0 0 0 0 0 0
