@<TRIPOS>MOLECULE
MOL012975
  115   124     1     1     0
SMALL
GASTEIGER


@<TRIPOS>ATOM
      1 O          -2.499066   -3.933516   -4.772482 O.3       1 <1>        -0.307681 
      2 O          -0.916996   -5.060014   -2.824260 O.3       1 <1>        -0.375057 
      3 O           0.028893    3.040189    2.493536 O.3       1 <1>        -0.366634 
      4 O          -2.620580   -4.928581   -0.719398 O.3       1 <1>        -0.316253 
      5 O          -1.571138   -3.014181   -0.230569 O.2       1 <1>        -0.261609 
      6 O           0.771556    0.646057    1.860581 O.3       1 <1>        -0.347545 
      7 O          -3.574563    1.564179    0.954447 O.3       1 <1>        -0.317382 
      8 O          -1.761753   -5.412200   -6.221217 O.2       1 <1>        -0.265272 
      9 O          -3.231602    2.911645   -0.810984 O.2       1 <1>        -0.263294 
     10 N          -2.164360   -1.442114   -5.290289 N.3       1 <1>        -0.293960 
     11 N           0.512437   -2.578856   -1.888680 N.3       1 <1>        -0.269554 
     12 N          -1.559584    5.315047    1.765328 N.3       1 <1>        -0.298945 
     13 N           1.005932    3.125189   -0.120697 N.ar      1 <1>        -0.206519 
     14 C          -1.031768   -1.266271   -3.229767 C.3       1 <1>         0.033933 
     15 C          -2.440665   -1.203681   -3.865006 C.3       1 <1>         0.033498 
     16 C          -0.481536   -2.720485   -2.988442 C.3       1 <1>         0.066575 
     17 C          -3.480093   -2.240835   -3.361878 C.3       1 <1>         0.035003 
     18 C          -1.537107   -3.784001   -2.536476 C.3       1 <1>         0.194802 
     19 C          -0.214246   -0.503204   -4.307051 C.3       1 <1>        -0.027421 
     20 C          -2.839462   -3.667405   -3.389241 C.3       1 <1>         0.117942 
     21 C          -0.773744   -0.567404   -1.896567 C.ar      1 <1>        -0.019592 
     22 C          -0.809168   -0.986231   -5.650090 C.3       1 <1>         0.000446 
     23 C          -4.034616   -1.737333   -1.984963 C.3       1 <1>        -0.042793 
     24 C           0.191358   -1.404545   -1.193585 C.ar      1 <1>         0.024711 
     25 C          -4.617149   -2.271698   -4.372142 C.2       1 <1>        -0.076514 
     26 C          -3.292048   -1.173110   -6.197414 C.3       1 <1>         0.017451 
     27 C          -1.261129    0.595574   -1.369162 C.ar      1 <1>        -0.049176 
     28 C          -4.538977   -1.790934   -5.621341 C.2       1 <1>        -0.073337 
     29 C          -1.902414   -3.845139   -1.061002 C.2       1 <1>         0.298146 
     30 C           1.922772   -2.843263   -2.249480 C.3       1 <1>        -0.007509 
     31 C          -0.783376    1.042139   -0.028988 C.ar      1 <1>         0.011291 
     32 C           0.690416   -1.066569    0.034681 C.ar      1 <1>        -0.013067 
     33 C          -1.347872    2.364411    0.567028 C.3       1 <1>         0.193251 
     34 C          -5.104606   -2.613360   -1.272353 C.3       1 <1>        -0.064359 
     35 C          -1.251434    2.482955    2.121245 C.3       1 <1>         0.092068 
     36 C           0.231909    0.209272    0.649467 C.ar      1 <1>         0.082108 
     37 C          -2.312959    3.298086    2.929751 C.3       1 <1>         0.002571 
     38 C          -0.168753    4.086957    3.459338 C.3       1 <1>         0.082712 
     39 C          -1.468882    3.654296    4.171472 C.3       1 <1>        -0.016124 
     40 C          -2.759980    4.622321    2.263657 C.3       1 <1>         0.004329 
     41 C          -0.385830    3.411614   -0.042779 C.ar      1 <1>         0.209659 
     42 C          -0.418311    5.425203    2.703491 C.3       1 <1>         0.028061 
     43 C          -2.382255   -5.207853   -5.190422 C.2       1 <1>         0.259422 
     44 C          -2.800459    2.324250    0.166812 C.2       1 <1>         0.285552 
     45 C           1.034238    4.156069    4.442306 C.3       1 <1>        -0.025356 
     46 C          -0.558996    4.751583   -0.575484 C.ar      1 <1>         0.035392 
     47 C          -1.779494    6.381342    0.760858 C.3       1 <1>         0.003204 
     48 C          -1.784276    5.670759   -0.612323 C.3       1 <1>        -0.008171 
     49 C          -3.036676   -6.370569   -4.476937 C.3       1 <1>         0.021445 
     50 C          -2.883901   -5.045503    0.693943 C.3       1 <1>         0.045961 
     51 C           0.764105    5.164941   -1.095039 C.ar      1 <1>         0.055292 
     52 C           1.696534    4.074270   -0.789111 C.ar      1 <1>         0.213946 
     53 C           2.394573    4.434312    3.748306 C.3       1 <1>        -0.062626 
     54 C           1.440642   -0.253623    2.759914 C.3       1 <1>         0.043039 
     55 C           1.197220    6.330897   -1.768213 C.ar      1 <1>        -0.047845 
     56 C           3.040269    4.120225   -1.165396 C.ar      1 <1>         0.010286 
     57 C          -4.962912    1.536466    0.568121 C.3       1 <1>         0.045908 
     58 C           2.627040    6.400912   -2.167760 C.ar      1 <1>        -0.060778 
     59 C           3.515881    5.331769   -1.881159 C.ar      1 <1>        -0.055507 
     60 H          -2.841057   -0.179553   -3.785408 H         1 <1>         0.048114 
     61 H          -0.044773   -3.087708   -3.931958 H         1 <1>         0.050984 
     62 H          -0.417259    0.577222   -4.209673 H         1 <1>         0.028709 
     63 H           0.873821   -0.652460   -4.242426 H         1 <1>         0.028709 
     64 H          -3.619978   -4.348548   -3.025364 H         1 <1>         0.064597 
     65 H          -0.264276   -1.858074   -6.044443 H         1 <1>         0.042698 
     66 H          -0.805502   -0.191603   -6.413966 H         1 <1>         0.042698 
     67 H          -3.205204   -1.566624   -1.287910 H         1 <1>         0.027225 
     68 H          -4.508414   -0.755613   -2.150231 H         1 <1>         0.027225 
     69 H          -5.566408   -2.725177   -4.092271 H         1 <1>         0.057625 
     70 H          -3.069941   -1.632495   -7.173368 H         1 <1>         0.046990 
     71 H          -3.438523   -0.089995   -6.331021 H         1 <1>         0.046990 
     72 H          -1.969808    1.170056   -1.951932 H         1 <1>         0.062491 
     73 H          -5.412766   -1.846342   -6.273324 H         1 <1>         0.058185 
     74 H          -0.121736   -5.211669   -2.322146 H         1 <1>         0.210999 
     75 H           2.542272   -2.876217   -1.342034 H         1 <1>         0.039457 
     76 H           2.313523   -2.054527   -2.907659 H         1 <1>         0.039457 
     77 H           2.018722   -3.813934   -2.759009 H         1 <1>         0.039457 
     78 H           1.389697   -1.727689    0.526837 H         1 <1>         0.065921 
     79 H          -6.044869   -2.660577   -1.839039 H         1 <1>         0.023005 
     80 H          -5.338493   -2.168995   -0.291276 H         1 <1>         0.023005 
     81 H          -4.755774   -3.637369   -1.096691 H         1 <1>         0.023005 
     82 H          -1.329659    1.470757    2.552087 H         1 <1>         0.061867 
     83 H          -3.206478    2.714986    3.215046 H         1 <1>         0.033957 
     84 H          -1.898180    4.443376    4.809296 H         1 <1>         0.029722 
     85 H          -1.301277    2.755280    4.788086 H         1 <1>         0.029722 
     86 H          -3.469647    4.421973    1.449691 H         1 <1>         0.043005 
     87 H          -3.280869    5.268098    2.988306 H         1 <1>         0.043005 
     88 H           0.474484    5.664173    2.108674 H         1 <1>         0.045472 
     89 H          -0.604641    6.242500    3.417305 H         1 <1>         0.045472 
     90 H           1.114163    3.181064    4.950828 H         1 <1>         0.029066 
     91 H           0.842984    4.926549    5.206850 H         1 <1>         0.029066 
     92 H          -0.957603    7.116694    0.784601 H         1 <1>         0.042971 
     93 H          -2.721444    6.925885    0.937469 H         1 <1>         0.042971 
     94 H          -1.706483    6.405800   -1.427776 H         1 <1>         0.032777 
     95 H          -2.724496    5.134816   -0.756793 H         1 <1>         0.032777 
     96 H           1.464195    2.483074    0.510668 H         1 <1>         0.453174 
     97 H          -4.126988   -6.225864   -4.486986 H         1 <1>         0.033023 
     98 H          -2.817525   -7.300121   -5.023716 H         1 <1>         0.033023 
     99 H          -2.700002   -6.512454   -3.442121 H         1 <1>         0.033023 
    100 H          -3.457822   -4.188188    1.081296 H         1 <1>         0.052963 
    101 H          -1.946150   -5.144933    1.264030 H         1 <1>         0.052963 
    102 H          -3.479462   -5.957716    0.847141 H         1 <1>         0.052963 
    103 H           2.447282    5.460507    3.355619 H         1 <1>         0.023066 
    104 H           3.213697    4.313865    4.475358 H         1 <1>         0.023066 
    105 H           2.556365    3.725163    2.921568 H         1 <1>         0.023066 
    106 H           1.656779    0.300325    3.685732 H         1 <1>         0.052870 
    107 H           0.795736   -1.111221    3.007527 H         1 <1>         0.052870 
    108 H           2.396028   -0.605981    2.343102 H         1 <1>         0.052870 
    109 H           0.521620    7.147596   -1.992540 H         1 <1>         0.062564 
    110 H           3.714064    3.301524   -0.938522 H         1 <1>         0.068340 
    111 H          -5.090883    1.134759   -0.449622 H         1 <1>         0.052963 
    112 H          -5.413120    2.540687    0.626170 H         1 <1>         0.052963 
    113 H          -5.496155    0.877086    1.268962 H         1 <1>         0.052963 
    114 H           2.994224    7.280993   -2.686585 H         1 <1>         0.061781 
    115 H           4.556165    5.399289   -2.185670 H         1 <1>         0.061965 
@<TRIPOS>BOND
     1   20    1 1    
     2    1   43 1    
     3   18    2 1    
     4    2   74 1    
     5   35    3 1    
     6    3   38 1    
     7   29    4 1    
     8    4   50 1    
     9   29    5 2    
    10   36    6 1    
    11    6   54 1    
    12   44    7 1    
    13    7   57 1    
    14   43    8 2    
    15   44    9 2    
    16   15   10 1    
    17   22   10 1    
    18   10   26 1    
    19   11   16 1    
    20   24   11 1    
    21   11   30 1    
    22   40   12 1    
    23   12   42 1    
    24   12   47 1    
    25   41   13 1    
    26   13   52 1    
    27   13   96 1    
    28   14   15 1    
    29   14   16 1    
    30   14   19 1    
    31   21   14 1    
    32   15   17 1    
    33   15   60 1    
    34   16   18 1    
    35   16   61 1    
    36   17   20 1    
    37   17   23 1    
    38   17   25 1    
    39   18   20 1    
    40   18   29 1    
    41   19   22 1    
    42   19   62 1    
    43   19   63 1    
    44   20   64 1    
    45   21   24 1    
    46   27   21 2    
    47   22   65 1    
    48   22   66 1    
    49   23   34 1    
    50   23   67 1    
    51   23   68 1    
    52   32   24 2    
    53   25   28 2    
    54   25   69 1    
    55   26   28 1    
    56   26   70 1    
    57   26   71 1    
    58   31   27 1    
    59   27   72 1    
    60   28   73 1    
    61   30   75 1    
    62   30   76 1    
    63   30   77 1    
    64   33   31 1    
    65   31   36 2    
    66   36   32 1    
    67   32   78 1    
    68   35   33 1    
    69   33   41 1    
    70   33   44 1    
    71   34   79 1    
    72   34   80 1    
    73   34   81 1    
    74   37   35 1    
    75   35   82 1    
    76   37   39 1    
    77   37   40 1    
    78   37   83 1    
    79   38   39 1    
    80   38   42 1    
    81   38   45 1    
    82   39   84 1    
    83   39   85 1    
    84   40   86 1    
    85   40   87 1    
    86   41   46 2    
    87   42   88 1    
    88   42   89 1    
    89   43   49 1    
    90   45   53 1    
    91   45   90 1    
    92   45   91 1    
    93   46   48 1    
    94   46   51 1    
    95   47   48 1    
    96   47   92 1    
    97   47   93 1    
    98   48   94 1    
    99   48   95 1    
   100   49   97 1    
   101   49   98 1    
   102   49   99 1    
   103   50  100 1    
   104   50  101 1    
   105   50  102 1    
   106   51   52 1    
   107   51   55 2    
   108   52   56 2    
   109   53  103 1    
   110   53  104 1    
   111   53  105 1    
   112   54  106 1    
   113   54  107 1    
   114   54  108 1    
   115   55   58 1    
   116   55  109 1    
   117   56   59 1    
   118   56  110 1    
   119   57  111 1    
   120   57  112 1    
   121   57  113 1    
   122   58   59 2    
   123   58  114 1    
   124   59  115 1    
@<TRIPOS>SUBSTRUCTURE
     1 ****       10 TEMP              0 ****  ****    0 ROOT 
@<TRIPOS>NORMAL
@<TRIPOS>FF_PBC
FORCE_FIELD_SETUP_FEATURE Force Field Setup information
v1.0  0 0.000000 0.000000 0.000000 0.000000 0.000000 0.000000 NONE 0 0 0 0 1 0 0 0 0 0 0 0 0
