@<TRIPOS>MOLECULE
MOL001945
   24    26     1     1     0
SMALL
GASTEIGER


@<TRIPOS>ATOM
      1 O           2.483998   -2.489589   -0.017130 O.2       1 <1>        -0.212229 
      2 O          -2.462852   -1.828422   -0.027149 O.3       1 <1>        -0.273400 
      3 O           0.714990    1.927711    0.519331 O.3       1 <1>        -0.346339 
      4 O          -4.629845   -1.426602   -0.015869 O.2       1 <1>        -0.259480 
      5 C           1.527304   -0.410587    0.232484 C.ar      1 <1>         0.117608 
      6 C          -0.897400    0.100604    0.261131 C.ar      1 <1>         0.036892 
      7 C           0.434925    0.576670    0.340253 C.ar      1 <1>         0.101802 
      8 C           1.308915   -1.738846    0.056873 C.ar      1 <1>         0.367818 
      9 C          -1.156183   -1.348527    0.063062 C.ar      1 <1>         0.104969 
     10 C          -0.074986   -2.257247   -0.036911 C.ar      1 <1>         0.074360 
     11 C           2.982079   -0.238881    0.283884 C.ar      1 <1>         0.053227 
     12 C          -2.089624    1.017818    0.372936 C.2       1 <1>        -0.043937 
     13 C           3.481053   -1.510901    0.130373 C.ar      1 <1>         0.322710 
     14 C          -3.303598    0.468447    0.276496 C.2       1 <1>         0.011032 
     15 C          -3.497952   -0.981288    0.069649 C.2       1 <1>         0.291584 
     16 C           0.848751    2.674239   -0.701733 C.3       1 <1>         0.043082 
     17 H          -0.256859   -3.316370   -0.180428 H         1 <1>         0.073822 
     18 H           3.533491    0.686378    0.414654 H         1 <1>         0.071423 
     19 H          -1.959781    2.089520    0.528889 H         1 <1>         0.062686 
     20 H           4.543562   -1.740784    0.123213 H         1 <1>         0.176011 
     21 H          -4.191158    1.097263    0.351602 H         1 <1>         0.067749 
     22 H           1.054021    3.723524   -0.442135 H         1 <1>         0.052870 
     23 H          -0.077765    2.634318   -1.295733 H         1 <1>         0.052870 
     24 H           1.684917    2.291454   -1.307245 H         1 <1>         0.052870 
@<TRIPOS>BOND
     1    8    1 1    
     2    1   13 1    
     3    9    2 1    
     4    2   15 1    
     5    7    3 1    
     6    3   16 1    
     7   15    4 2    
     8    7    5 1    
     9    5    8 2    
    10    5   11 1    
    11    6    7 2    
    12    6    9 1    
    13    6   12 1    
    14    8   10 1    
    15    9   10 2    
    16   10   17 1    
    17   11   13 2    
    18   11   18 1    
    19   12   14 2    
    20   12   19 1    
    21   13   20 1    
    22   14   15 1    
    23   14   21 1    
    24   16   22 1    
    25   16   23 1    
    26   16   24 1    
@<TRIPOS>SUBSTRUCTURE
     1 ****        3 TEMP              0 ****  ****    0 ROOT 
@<TRIPOS>NORMAL
@<TRIPOS>FF_PBC
FORCE_FIELD_SETUP_FEATURE Force Field Setup information
v1.0  0 0.000000 0.000000 0.000000 0.000000 0.000000 0.000000 NONE 0 0 0 0 1 0 0 0 0 0 0 0 0
