@<TRIPOS>MOLECULE
MOL004626
   83    87     1     1     0
SMALL
GASTEIGER


@<TRIPOS>ATOM
      1 C          -0.466383   -2.952843   -1.331263 C.3       1 <1>        -0.025831 
      2 C          -0.766470   -3.195648    0.418699 C.3       1 <1>         0.060637 
      3 C          -2.264629   -2.762713    1.278906 C.3       1 <1>        -0.005589 
      4 C          -3.333079   -1.814155    0.082262 C.3       1 <1>        -0.027836 
      5 C          -2.725883   -0.940165   -1.524392 C.3       1 <1>        -0.024959 
      6 C          -1.446032   -1.909174   -2.414843 C.3       1 <1>        -0.044720 
      7 C          -4.182594   -2.829974   -0.538880 C.3       1 <1>        -0.048609 
      8 C          -2.657508   -2.887241   -0.822875 C.3       1 <1>        -0.046267 
      9 C          -1.368715   -1.070290   -0.369334 C.3       1 <1>        -0.019291 
     10 C          -1.881184    0.152348   -1.191653 C.3       1 <1>        -0.025735 
     11 C           0.231194   -0.390505   -0.639628 C.3       1 <1>        -0.002789 
     12 C           0.283896    1.215219   -0.452287 C.2       1 <1>        -0.063151 
     13 C          -0.827794    2.002478   -0.430618 C.2       1 <1>        -0.083644 
     14 C          -2.255387    1.524867   -0.617340 C.3       1 <1>        -0.030614 
     15 C           1.436200   -0.894041    0.303991 C.3       1 <1>        -0.016610 
     16 C           2.781573   -0.109300    0.442110 C.3       1 <1>         0.064286 
     17 C           2.578480    1.391852    0.798984 C.3       1 <1>         0.026309 
     18 C           1.639829    1.965887   -0.304443 C.3       1 <1>        -0.008787 
     19 C           3.986479    2.076964    0.761384 C.3       1 <1>        -0.041883 
     20 C           3.943894    3.626475    0.840300 C.3       1 <1>        -0.047178 
     21 C           3.013556    4.238969   -0.245561 C.3       1 <1>        -0.034297 
     22 C           1.618963    3.530436   -0.201403 C.3       1 <1>        -0.040648 
     23 C          -2.254493   -2.363379    2.858344 C.3       1 <1>        -0.057190 
     24 O          -0.454135   -4.607247    0.529299 O.3       1 <1>        -0.391248 
     25 C          -3.853071   -0.468089   -2.497804 C.3       1 <1>        -0.059009 
     26 C          -1.413507   -0.398696    1.100372 C.3       1 <1>        -0.058490 
     27 O           3.672196   -0.751196    1.377642 O.3       1 <1>        -0.391114 
     28 C           1.969931    1.551997    2.232208 C.3       1 <1>         0.052730 
     29 O           2.725937    0.782033    3.189703 O.3       1 <1>        -0.394355 
     30 C           0.951374   -0.372910   -2.082093 C.3       1 <1>        -0.055242 
     31 H          -4.081226   -1.201119    0.622704 H         1 <1>         0.031210 
     32 C          -2.887225   -4.214071    1.656188 C.3       1 <1>        -0.057190 
     33 C           2.814683    5.755546    0.070037 C.3       1 <1>        -0.059793 
     34 C           3.675177    4.156108   -1.660526 C.3       1 <1>        -0.059793 
     35 H           0.612765   -2.939177   -1.442796 H         1 <1>         0.029037 
     36 H          -0.578410   -3.935710   -1.825526 H         1 <1>         0.029037 
     37 H           0.051133   -2.810551    1.022970 H         1 <1>         0.059852 
     38 H          -1.844284   -2.548679   -3.226151 H         1 <1>         0.027149 
     39 H          -0.940710   -1.327133   -3.183636 H         1 <1>         0.027149 
     40 H          -4.680921   -3.571601    0.092429 H         1 <1>         0.026846 
     41 H          -4.958270   -2.350463   -1.167189 H         1 <1>         0.026846 
     42 H          -3.102170   -3.233686   -1.795398 H         1 <1>         0.027096 
     43 H          -2.450950   -3.976396   -0.774599 H         1 <1>         0.027096 
     44 H          -1.503755    0.465942   -2.175357 H         1 <1>         0.031460 
     45 H          -0.848147    3.075719   -0.270644 H         1 <1>         0.057198 
     46 H          -2.893037    1.577325    0.274540 H         1 <1>         0.031042 
     47 H          -2.763179    2.139348   -1.382738 H         1 <1>         0.031042 
     48 H           1.817636   -1.878193    0.008740 H         1 <1>         0.029875 
     49 H           1.223980   -0.946637    1.368549 H         1 <1>         0.029875 
     50 H           3.402941   -0.208977   -0.459191 H         1 <1>         0.059982 
     51 H           2.154223    1.875795   -1.262335 H         1 <1>         0.035286 
     52 H           4.596918    1.702628    1.599611 H         1 <1>         0.027247 
     53 H           4.523206    1.806721   -0.159908 H         1 <1>         0.027247 
     54 H           4.965590    4.021989    0.714300 H         1 <1>         0.027063 
     55 H           3.616201    3.942489    1.840833 H         1 <1>         0.027063 
     56 H           1.111447    3.818137    0.731069 H         1 <1>         0.027632 
     57 H           1.056110    3.959270   -1.047370 H         1 <1>         0.027632 
     58 H          -3.088275   -2.735302    3.477559 H         1 <1>         0.023587 
     59 H          -1.331330   -2.787533    3.287571 H         1 <1>         0.023587 
     60 H          -2.303516   -1.339717    3.246850 H         1 <1>         0.023587 
     61 H          -0.303442   -4.952365    1.404846 H         1 <1>         0.209800 
     62 H          -3.494942    0.234686   -3.265592 H         1 <1>         0.023525 
     63 H          -4.644732    0.032014   -1.919862 H         1 <1>         0.023525 
     64 H          -4.280644   -1.316889   -3.049865 H         1 <1>         0.023525 
     65 H          -0.797811   -0.923007    1.808280 H         1 <1>         0.023542 
     66 H          -0.998390    0.565666    1.351546 H         1 <1>         0.023542 
     67 H          -2.403307   -0.179072    1.496764 H         1 <1>         0.023542 
     68 H           3.391842   -0.656321    2.284504 H         1 <1>         0.209802 
     69 H           0.933564    1.206197    2.257182 H         1 <1>         0.056353 
     70 H           1.947190    2.599755    2.559514 H         1 <1>         0.056353 
     71 H           2.399028    0.860562    4.082833 H         1 <1>         0.209421 
     72 H           0.552514    0.359840   -2.798929 H         1 <1>         0.023830 
     73 H           1.113730   -1.298807   -2.634908 H         1 <1>         0.023830 
     74 H           1.996452   -0.089756   -2.060841 H         1 <1>         0.023830 
     75 H          -2.959910   -5.024874    0.921972 H         1 <1>         0.023587 
     76 H          -2.318041   -4.727893    2.449424 H         1 <1>         0.023587 
     77 H          -3.913879   -4.142455    2.052185 H         1 <1>         0.023587 
     78 H           3.781229    6.282861    0.076655 H         1 <1>         0.023499 
     79 H           2.345099    5.902821    1.054829 H         1 <1>         0.023499 
     80 H           2.169837    6.229478   -0.686127 H         1 <1>         0.023499 
     81 H           3.007692    4.589243   -2.421074 H         1 <1>         0.023499 
     82 H           3.921251    3.136041   -1.979756 H         1 <1>         0.023499 
     83 H           4.614034    4.730748   -1.674351 H         1 <1>         0.023499 
@<TRIPOS>BOND
     1    1    2 1    
     2    1    6 1    
     3    1   35 1    
     4    1   36 1    
     5    2    3 1    
     6    2   24 1    
     7    2   37 1    
     8    3    4 1    
     9    3   23 1    
    10    3   32 1    
    11    4    5 1    
    12    4    7 1    
    13    4   31 1    
    14    5    6 1    
    15    5   10 1    
    16    5   25 1    
    17    6   38 1    
    18    6   39 1    
    19    7    8 1    
    20    7   40 1    
    21    7   41 1    
    22    8    9 1    
    23    8   42 1    
    24    8   43 1    
    25    9   10 1    
    26    9   11 1    
    27    9   26 1    
    28   10   14 1    
    29   10   44 1    
    30   11   12 1    
    31   11   15 1    
    32   11   30 1    
    33   12   13 2    
    34   12   18 1    
    35   13   14 1    
    36   13   45 1    
    37   14   46 1    
    38   14   47 1    
    39   15   16 1    
    40   15   48 1    
    41   15   49 1    
    42   16   17 1    
    43   16   27 1    
    44   16   50 1    
    45   17   18 1    
    46   17   19 1    
    47   17   28 1    
    48   18   22 1    
    49   18   51 1    
    50   19   20 1    
    51   19   52 1    
    52   19   53 1    
    53   20   21 1    
    54   20   54 1    
    55   20   55 1    
    56   21   22 1    
    57   21   33 1    
    58   21   34 1    
    59   22   56 1    
    60   22   57 1    
    61   23   58 1    
    62   23   59 1    
    63   23   60 1    
    64   24   61 1    
    65   25   62 1    
    66   25   63 1    
    67   25   64 1    
    68   26   65 1    
    69   26   66 1    
    70   26   67 1    
    71   27   68 1    
    72   28   29 1    
    73   28   69 1    
    74   28   70 1    
    75   29   71 1    
    76   30   72 1    
    77   30   73 1    
    78   30   74 1    
    79   32   75 1    
    80   32   76 1    
    81   32   77 1    
    82   33   78 1    
    83   33   79 1    
    84   33   80 1    
    85   34   81 1    
    86   34   82 1    
    87   34   83 1    
@<TRIPOS>SUBSTRUCTURE
     1 ****        1 TEMP              0 ****  ****    0 ROOT 
@<TRIPOS>NORMAL
@<TRIPOS>FF_PBC
FORCE_FIELD_SETUP_FEATURE Force Field Setup information
v1.0  0 0.000000 0.000000 0.000000 0.000000 0.000000 0.000000 NONE 0 0 0 0 1 0 0 0 0 0 0 0 0
