@<TRIPOS>MOLECULE
MOL006132
   44    44     1     1     0
SMALL
GASTEIGER


@<TRIPOS>ATOM
      1 C           6.783167    1.883673   -0.404917 C.ar      1 <1>        -0.029141 
      2 C           7.226498    0.547700    0.056189 C.ar      1 <1>         0.102451 
      3 C           6.283385   -0.488567    0.177421 C.ar      1 <1>         0.105659 
      4 C           4.858246   -0.236821   -0.134292 C.ar      1 <1>        -0.025965 
      5 C           4.421857    1.036544   -0.570913 C.ar      1 <1>        -0.044363 
      6 C           5.426694    2.122166   -0.710666 C.ar      1 <1>        -0.055971 
      7 O           8.571458    0.329348    0.362931 O.3       1 <1>        -0.357269 
      8 O           6.693940   -1.756327    0.590753 O.3       1 <1>        -0.345341 
      9 C           6.719089   -2.729034   -0.465855 C.3       1 <1>         0.043136 
     10 C           2.928431    1.231380   -0.881652 C.3       1 <1>        -0.020924 
     11 C           2.408488    2.693150   -0.802674 C.3       1 <1>         0.009887 
     12 C           0.904749    2.724176   -0.958358 C.2       1 <1>         0.136114 
     13 C           0.156443    3.946803   -0.481308 C.3       1 <1>         0.031865 
     14 O           0.313880    1.788271   -1.474639 O.2       1 <1>        -0.297311 
     15 C          -1.385690    3.753714   -0.468060 C.3       1 <1>         0.061899 
     16 C          -1.820205    2.736859    0.629284 C.3       1 <1>        -0.026462 
     17 O          -1.957602    5.051470   -0.222424 O.3       1 <1>        -0.391370 
     18 C          -3.303338    2.289886    0.491054 C.3       1 <1>        -0.050962 
     19 C          -3.650618    1.147784    1.487216 C.3       1 <1>        -0.055831 
     20 C          -5.100051    0.636970    1.277062 C.3       1 <1>        -0.065275 
     21 H           7.514474    2.676884   -0.507594 H         1 <1>         0.064412 
     22 H           4.147966   -1.047215   -0.021810 H         1 <1>         0.064684 
     23 H           5.132725    3.109583   -1.048608 H         1 <1>         0.062110 
     24 H           8.709202   -0.538972    0.728058 H         1 <1>         0.217422 
     25 H           7.054913   -3.687078   -0.044996 H         1 <1>         0.052871 
     26 H           7.425040   -2.419708   -1.252441 H         1 <1>         0.052871 
     27 H           5.720393   -2.870395   -0.907737 H         1 <1>         0.052871 
     28 H           2.352374    0.642881   -0.147719 H         1 <1>         0.031720 
     29 H           2.738232    0.816077   -1.885122 H         1 <1>         0.031720 
     30 H           2.835269    3.295572   -1.619956 H         1 <1>         0.034471 
     31 H           2.707215    3.130651    0.162780 H         1 <1>         0.034471 
     32 H           0.488394    4.235079    0.527796 H         1 <1>         0.036674 
     33 H           0.400025    4.769392   -1.173066 H         1 <1>         0.036674 
     34 H          -1.693345    3.396689   -1.467090 H         1 <1>         0.059722 
     35 H          -1.189540    1.838118    0.555730 H         1 <1>         0.029013 
     36 H          -1.657246    3.184918    1.622350 H         1 <1>         0.029013 
     37 H          -2.907561    5.069397   -0.268881 H         1 <1>         0.209791 
     38 H          -3.978089    3.139442    0.675664 H         1 <1>         0.026600 
     39 H          -3.474451    1.929230   -0.535288 H         1 <1>         0.026600 
     40 H          -2.957981    0.302030    1.340509 H         1 <1>         0.026266 
     41 H          -3.533528    1.511641    2.521613 H         1 <1>         0.026266 
     42 H          -5.325306   -0.169292    1.992578 H         1 <1>         0.022978 
     43 H          -5.821224    1.453126    1.429190 H         1 <1>         0.022978 
     44 H          -5.222673    0.241003    0.257591 H         1 <1>         0.022978 
@<TRIPOS>BOND
     1    1    2 1    
     2    1    6 2    
     3    1   21 1    
     4    2    3 2    
     5    2    7 1    
     6    3    4 1    
     7    3    8 1    
     8    4    5 2    
     9    4   22 1    
    10    5    6 1    
    11    5   10 1    
    12    6   23 1    
    13    7   24 1    
    14    8    9 1    
    15    9   25 1    
    16    9   26 1    
    17    9   27 1    
    18   10   11 1    
    19   10   28 1    
    20   10   29 1    
    21   11   12 1    
    22   11   30 1    
    23   11   31 1    
    24   12   13 1    
    25   12   14 2    
    26   13   15 1    
    27   13   32 1    
    28   13   33 1    
    29   15   16 1    
    30   15   17 1    
    31   15   34 1    
    32   16   18 1    
    33   16   35 1    
    34   16   36 1    
    35   17   37 1    
    36   18   19 1    
    37   18   38 1    
    38   18   39 1    
    39   19   20 1    
    40   19   40 1    
    41   19   41 1    
    42   20   42 1    
    43   20   43 1    
    44   20   44 1    
@<TRIPOS>SUBSTRUCTURE
     1 ****        1 TEMP              0 ****  ****    0 ROOT 
@<TRIPOS>NORMAL
@<TRIPOS>FF_PBC
FORCE_FIELD_SETUP_FEATURE Force Field Setup information
v1.0  0 0.000000 0.000000 0.000000 0.000000 0.000000 0.000000 NONE 0 0 0 0 1 0 0 0 0 0 0 0 0
