@<TRIPOS>MOLECULE
MOL005005
   57    59     1     1     0
SMALL
GASTEIGER


@<TRIPOS>ATOM
      1 O          -0.255600   -1.134645    0.028474 O.3       1 <1>        -0.305131 
      2 O          -4.259058    1.725211    0.359690 O.3       1 <1>        -0.358672 
      3 O          -4.502681   -3.053806    1.530593 O.3       1 <1>        -0.359385 
      4 O           0.854968    2.099310   -1.077396 O.3       1 <1>        -0.354461 
      5 O          -1.824076    2.512659   -0.481818 O.2       1 <1>        -0.284270 
      6 O           6.056452   -1.533000   -1.483254 O.3       1 <1>        -0.359551 
      7 C          -2.218991    0.279023    0.173221 C.ar      1 <1>         0.084831 
      8 C          -4.417011   -0.615669    0.957812 C.ar      1 <1>         0.016577 
      9 C          -1.611424   -0.959907    0.322993 C.ar      1 <1>         0.099019 
     10 C          -3.655658    0.472904    0.498463 C.ar      1 <1>         0.091864 
     11 C           0.530577   -0.142160   -0.425686 C.2       1 <1>         0.123630 
     12 C           1.971978   -0.505604   -0.703216 C.ar      1 <1>         0.008563 
     13 C          -5.896384   -0.411730    1.316012 C.3       1 <1>        -0.004339 
     14 C          -3.771925   -1.949264    1.098061 C.ar      1 <1>         0.080983 
     15 C          -1.347160    1.398713   -0.329313 C.2       1 <1>         0.223075 
     16 C          -2.415343   -2.107694    0.799238 C.ar      1 <1>        -0.000251 
     17 C           0.066123    1.106239   -0.622467 C.2       1 <1>         0.151806 
     18 C           4.326259   -0.857300    0.066649 C.ar      1 <1>        -0.013298 
     19 C           2.908485   -0.507602    0.335287 C.ar      1 <1>        -0.046109 
     20 C           5.350158   -0.835614    1.208488 C.3       1 <1>        -0.006792 
     21 C           2.391205   -0.859435   -2.078838 C.ar      1 <1>        -0.049581 
     22 C           4.722940   -1.200555   -1.235452 C.ar      1 <1>         0.076073 
     23 C          -6.731826   -0.543747    0.060957 C.2       1 <1>        -0.080815 
     24 C           3.723152   -1.201774   -2.334893 C.ar      1 <1>        -0.031025 
     25 C           6.006039    0.526546    1.208084 C.2       1 <1>        -0.080898 
     26 C          -7.485144    0.398869   -0.533897 C.2       1 <1>        -0.079306 
     27 C           7.302610    0.809375    0.991712 C.2       1 <1>        -0.079307 
     28 C          -8.292802    0.071453   -1.773741 C.3       1 <1>        -0.044040 
     29 C          -7.619000    1.829944   -0.056075 C.3       1 <1>        -0.044040 
     30 C           7.803749    2.237418    1.054865 C.3       1 <1>        -0.044040 
     31 C           8.364038   -0.225463    0.681985 C.3       1 <1>        -0.044040 
     32 H          -6.218202   -1.184719    2.030253 H         1 <1>         0.035721 
     33 H          -6.012807    0.544040    1.842809 H         1 <1>         0.035721 
     34 H          -1.948033   -3.079110    0.912665 H         1 <1>         0.066956 
     35 H           2.593126   -0.248928    1.340231 H         1 <1>         0.062785 
     36 H           4.834025   -0.970152    2.171447 H         1 <1>         0.035640 
     37 H           6.043777   -1.680528    1.106829 H         1 <1>         0.035640 
     38 H           1.662342   -0.853530   -2.883126 H         1 <1>         0.062504 
     39 H          -6.701962   -1.536731   -0.388888 H         1 <1>         0.057473 
     40 H           4.022791   -1.467157   -3.343210 H         1 <1>         0.064348 
     41 H           5.318442    1.348496    1.413403 H         1 <1>         0.057472 
     42 H          -3.679103    2.395490    0.009735 H         1 <1>         0.217354 
     43 H          -5.259361   -3.211768    0.977432 H         1 <1>         0.217328 
     44 H           1.765581    1.897862   -1.260343 H         1 <1>         0.217537 
     45 H          -8.288752   -0.998298   -2.030256 H         1 <1>         0.027427 
     46 H          -9.339194    0.375605   -1.618704 H         1 <1>         0.027427 
     47 H          -7.888383    0.629679   -2.631752 H         1 <1>         0.027427 
     48 H          -6.761151    2.198904    0.517924 H         1 <1>         0.027427 
     49 H          -7.730967    2.505047   -0.917585 H         1 <1>         0.027427 
     50 H          -8.522305    1.912309    0.565684 H         1 <1>         0.027427 
     51 H           6.240413   -1.744412   -2.390762 H         1 <1>         0.217325 
     52 H           8.134407    2.551820    0.053314 H         1 <1>         0.027427 
     53 H           8.660925    2.291655    1.743305 H         1 <1>         0.027427 
     54 H           7.043925    2.952994    1.404141 H         1 <1>         0.027427 
     55 H           8.787729   -0.592950    1.628313 H         1 <1>         0.027427 
     56 H           9.176809    0.221992    0.089937 H         1 <1>         0.027427 
     57 H           7.990776   -1.079007    0.102967 H         1 <1>         0.027427 
@<TRIPOS>BOND
     1    1    9 1    
     2   11    1 1    
     3   10    2 1    
     4    2   42 1    
     5   14    3 1    
     6    3   43 1    
     7   17    4 1    
     8    4   44 1    
     9   15    5 2    
    10   22    6 1    
    11    6   51 1    
    12    9    7 2    
    13    7   10 1    
    14   15    7 1    
    15   10    8 2    
    16    8   13 1    
    17   14    8 1    
    18    9   16 1    
    19   12   11 1    
    20   11   17 2    
    21   19   12 2    
    22   12   21 1    
    23   13   23 1    
    24   13   32 1    
    25   13   33 1    
    26   16   14 2    
    27   17   15 1    
    28   16   34 1    
    29   18   19 1    
    30   18   20 1    
    31   18   22 2    
    32   19   35 1    
    33   20   25 1    
    34   20   36 1    
    35   20   37 1    
    36   21   24 2    
    37   21   38 1    
    38   22   24 1    
    39   23   26 2    
    40   23   39 1    
    41   24   40 1    
    42   25   27 2    
    43   25   41 1    
    44   26   28 1    
    45   26   29 1    
    46   27   30 1    
    47   27   31 1    
    48   28   45 1    
    49   28   46 1    
    50   28   47 1    
    51   29   48 1    
    52   29   49 1    
    53   29   50 1    
    54   30   52 1    
    55   30   53 1    
    56   30   54 1    
    57   31   55 1    
    58   31   56 1    
    59   31   57 1    
@<TRIPOS>SUBSTRUCTURE
     1 ****        1 TEMP              0 ****  ****    0 ROOT 
@<TRIPOS>NORMAL
@<TRIPOS>FF_PBC
FORCE_FIELD_SETUP_FEATURE Force Field Setup information
v1.0  0 0.000000 0.000000 0.000000 0.000000 0.000000 0.000000 NONE 0 0 0 0 1 0 0 0 0 0 0 0 0
