@<TRIPOS>MOLECULE
MOL005337
  148   154     1     1     0
SMALL
GASTEIGER


@<TRIPOS>ATOM
      1 C          -2.188272   -1.666764   -3.468119 C.3       1 <1>        -0.025470 
      2 C          -3.131419   -2.568352   -2.636036 C.3       1 <1>         0.067174 
      3 C          -2.246423   -3.420075   -1.638648 C.3       1 <1>        -0.005230 
      4 C          -0.894720   -2.667651   -1.265799 C.3       1 <1>        -0.027835 
      5 C          -0.947108   -1.094894   -1.191948 C.3       1 <1>        -0.025166 
      6 C          -1.496975   -0.587231   -2.583211 C.3       1 <1>        -0.044719 
      7 C          -0.123963   -3.271611   -0.050059 C.3       1 <1>        -0.048618 
      8 C           1.314874   -2.689219    0.078622 C.3       1 <1>        -0.046558 
      9 C           1.378862   -1.131585    0.212017 C.3       1 <1>        -0.022908 
     10 C           0.522627   -0.525879   -0.971130 C.3       1 <1>        -0.027109 
     11 C           2.882048   -0.609188    0.067398 C.3       1 <1>        -0.020884 
     12 C           2.854931    0.951991    0.218681 C.3       1 <1>        -0.003636 
     13 C           2.115385    1.601663   -0.985129 C.3       1 <1>         0.059199 
     14 C           0.658229    1.038843   -1.044048 C.3       1 <1>        -0.022712 
     15 C           4.296600    1.355607    0.674962 C.3       1 <1>        -0.006323 
     16 C           4.514245    0.255372    1.756298 C.3       1 <1>        -0.046731 
     17 C           3.873177   -1.050472    1.205061 C.3       1 <1>        -0.046421 
     18 C           4.627180    2.808799    1.199258 C.3       1 <1>         0.073278 
     19 C           4.936483    3.770742    0.000453 C.3       1 <1>        -0.020191 
     20 C           6.805195    2.437621    4.851276 C.3       1 <1>         0.114062 
     21 C           6.010675    3.627771    4.258093 C.3       1 <1>         0.134131 
     22 C           6.327906    3.776204    2.741976 C.3       1 <1>         0.188514 
     23 O           7.741919    3.984456    2.560367 O.3       1 <1>        -0.340513 
     24 C           8.588280    2.937375    3.074051 C.3       1 <1>         0.113005 
     25 C           8.317314    2.659098    4.578023 C.3       1 <1>         0.111896 
     26 C          -6.387125    0.045187   -1.093364 C.3       1 <1>         0.114429 
     27 C          -6.167699   -1.441808   -0.722538 C.3       1 <1>         0.140625 
     28 C          -5.456701   -2.165341   -1.901664 C.3       1 <1>         0.188595 
     29 O          -6.226634   -2.079994   -3.115954 O.3       1 <1>        -0.340513 
     30 C          -6.557681   -0.734327   -3.528099 C.3       1 <1>         0.113005 
     31 C          -7.227476    0.095845   -2.397383 C.3       1 <1>         0.111906 
     32 C          -7.247959   -2.759027    2.542968 C.3       1 <1>         0.114061 
     33 C          -6.790658   -3.653822    1.365139 C.3       1 <1>         0.134126 
     34 C          -7.606745   -3.295576    0.088918 C.3       1 <1>         0.188544 
     35 O          -9.003980   -3.531913    0.338861 O.3       1 <1>        -0.340519 
     36 C          -9.559079   -2.756811    1.425909 C.3       1 <1>         0.113005 
     37 C          -8.773359   -2.962987    2.751259 C.3       1 <1>         0.111896 
     38 C           3.454660    3.378418    2.063368 C.3       1 <1>        -0.035436 
     39 O           1.996013    3.024780   -0.809928 O.3       1 <1>        -0.391475 
     40 C           0.799952   -0.737723    1.629838 C.3       1 <1>        -0.058782 
     41 C          -1.915553   -0.600155   -0.063947 C.3       1 <1>        -0.059018 
     42 O          -4.104938   -1.672604   -2.043710 O.3       1 <1>        -0.344881 
     43 O           5.855895    2.647590    1.965397 O.3       1 <1>        -0.342159 
     44 C           3.613576   -1.046480   -1.270326 C.3       1 <1>        -0.058710 
     45 C           8.607749    1.664797    2.189334 C.3       1 <1>         0.073015 
     46 C          -5.383495    0.010177   -4.211714 C.3       1 <1>         0.073015 
     47 O          -5.129273    0.742651   -1.190548 O.3       1 <1>        -0.386391 
     48 O          -5.866845    1.242730   -4.780940 O.3       1 <1>        -0.392366 
     49 O           8.801454    3.753962    5.380710 O.3       1 <1>        -0.386488 
     50 O           6.381289    4.820251    4.986997 O.3       1 <1>        -0.384104 
     51 O           6.305262    1.192412    4.326094 O.3       1 <1>        -0.386401 
     52 O          -7.493806   -1.945484   -0.407953 O.3       1 <1>        -0.337759 
     53 C          -9.810038   -1.261763    1.086710 C.3       1 <1>         0.073015 
     54 O          -6.884836   -1.386754    2.293237 O.3       1 <1>        -0.386401 
     55 O          -8.565406   -0.381046   -2.151273 O.3       1 <1>        -0.386488 
     56 O          -9.023330   -4.279454    3.281615 O.3       1 <1>        -0.386488 
     57 O         -10.652151   -0.688584    2.106752 O.3       1 <1>        -0.392366 
     58 O          -7.006607   -5.033000    1.741120 O.3       1 <1>        -0.384104 
     59 H           2.238475    1.244274    1.074526 H         1 <1>         0.033467 
     60 C          -1.895018   -4.763513   -2.373216 C.3       1 <1>        -0.057181 
     61 H           5.008928    1.156974   -0.130146 H         1 <1>         0.033210 
     62 O           9.702592    0.823050    2.601940 O.3       1 <1>        -0.392366 
     63 H           1.010847   -0.875245   -1.884235 H         1 <1>         0.031235 
     64 H          -0.211927   -2.871539   -2.105600 H         1 <1>         0.031210 
     65 C          -3.050897   -3.860652   -0.372635 C.3       1 <1>        -0.057181 
     66 C           6.374127    3.651091   -0.585489 C.3       1 <1>        -0.031919 
     67 C           6.467636    4.454337   -1.863721 C.2       1 <1>        -0.085195 
     68 C           6.285774    3.963295   -3.101104 C.2       1 <1>        -0.079616 
     69 C           6.439971    4.842398   -4.323663 C.3       1 <1>        -0.044050 
     70 C           5.921786    2.520279   -3.380103 C.3       1 <1>        -0.044050 
     71 H          -2.750047   -1.162804   -4.268121 H         1 <1>         0.029047 
     72 H          -1.442113   -2.289579   -3.987003 H         1 <1>         0.029047 
     73 H          -3.659302   -3.209987   -3.364099 H         1 <1>         0.060224 
     74 H          -2.193986    0.252065   -2.425410 H         1 <1>         0.027149 
     75 H          -0.704825   -0.205694   -3.246182 H         1 <1>         0.027149 
     76 H          -0.002999   -4.359016   -0.175589 H         1 <1>         0.026846 
     77 H          -0.689833   -3.140593    0.877444 H         1 <1>         0.026846 
     78 H           1.824137   -3.029225   -0.831491 H         1 <1>         0.027087 
     79 H           1.825093   -3.159231    0.934410 H         1 <1>         0.027087 
     80 H           2.672588    1.421352   -1.917398 H         1 <1>         0.059620 
     81 H           0.203209    1.440027   -1.960593 H         1 <1>         0.029314 
     82 H           0.129051    1.519763   -0.213100 H         1 <1>         0.029314 
     83 H           5.575835    0.102439    1.996608 H         1 <1>         0.026910 
     84 H           4.002594    0.530013    2.690989 H         1 <1>         0.026910 
     85 H           3.429962   -1.652100    2.010897 H         1 <1>         0.027088 
     86 H           4.694320   -1.682682    0.827783 H         1 <1>         0.027088 
     87 H           4.246636    3.564744   -0.823904 H         1 <1>         0.029588 
     88 H           4.781308    4.822245    0.288390 H         1 <1>         0.029588 
     89 H           6.647847    2.440275    5.944781 H         1 <1>         0.064758 
     90 H           4.941993    3.419469    4.418455 H         1 <1>         0.067095 
     91 H           5.933715    4.734278    2.377005 H         1 <1>         0.093759 
     92 H           9.610852    3.343943    3.006149 H         1 <1>         0.064668 
     93 H           8.887854    1.772651    4.898744 H         1 <1>         0.064673 
     94 H          -6.973421    0.514781   -0.283311 H         1 <1>         0.064768 
     95 H          -5.509440   -1.442832    0.158139 H         1 <1>         0.067477 
     96 H          -5.438272   -3.231247   -1.668562 H         1 <1>         0.093760 
     97 H          -7.316775   -0.855091   -4.318735 H         1 <1>         0.064668 
     98 H          -7.342086    1.143487   -2.718774 H         1 <1>         0.064673 
     99 H          -6.723407   -3.102763    3.452430 H         1 <1>         0.064758 
    100 H          -5.711447   -3.507144    1.205857 H         1 <1>         0.067095 
    101 H          -7.362905   -4.007252   -0.712898 H         1 <1>         0.093754 
    102 H         -10.564168   -3.181272    1.585119 H         1 <1>         0.064668 
    103 H          -9.141024   -2.258707    3.514859 H         1 <1>         0.064673 
    104 H           3.199331    2.705766    2.892320 H         1 <1>         0.025739 
    105 H           3.681770    4.362668    2.492280 H         1 <1>         0.025739 
    106 H           2.552525    3.529223    1.459680 H         1 <1>         0.025739 
    107 H           1.564057    3.470438   -1.532730 H         1 <1>         0.209789 
    108 H           0.193543   -1.519933    2.096086 H         1 <1>         0.023533 
    109 H           1.563942   -0.532565    2.387043 H         1 <1>         0.023533 
    110 H           0.180727    0.165208    1.601891 H         1 <1>         0.023533 
    111 H          -1.852134    0.484712    0.078784 H         1 <1>         0.023525 
    112 H          -1.745907   -1.079992    0.902301 H         1 <1>         0.023525 
    113 H          -2.963119   -0.781140   -0.298840 H         1 <1>         0.023525 
    114 H           3.133700   -0.782378   -2.216766 H         1 <1>         0.023534 
    115 H           3.779565   -2.131297   -1.301240 H         1 <1>         0.023534 
    116 H           4.621717   -0.624055   -1.351765 H         1 <1>         0.023534 
    117 H           7.670139    1.106643    2.275484 H         1 <1>         0.058370 
    118 H           8.734114    1.973912    1.137867 H         1 <1>         0.058370 
    119 H          -4.990169   -0.641111   -5.009905 H         1 <1>         0.058370 
    120 H          -4.579630    0.225893   -3.496407 H         1 <1>         0.058370 
    121 H          -5.224679    1.669638   -1.387036 H         1 <1>         0.210005 
    122 H          -5.190924    1.735347   -5.238044 H         1 <1>         0.209508 
    123 H           8.335345    4.564692    5.189009 H         1 <1>         0.210004 
    124 H           5.893833    5.593704    4.718823 H         1 <1>         0.210110 
    125 H           6.739821    0.426782    4.689349 H         1 <1>         0.210005 
    126 H          -8.877283   -0.684687    1.032469 H         1 <1>         0.058370 
    127 H         -10.313081   -1.209465    0.106360 H         1 <1>         0.058370 
    128 H          -7.113486   -0.801505    3.009481 H         1 <1>         0.210005 
    129 H          -8.563523   -1.283953   -1.840953 H         1 <1>         0.210004 
    130 H          -8.705445   -4.962141    2.695037 H         1 <1>         0.210004 
    131 H         -10.874068    0.223745    1.942083 H         1 <1>         0.209508 
    132 H          -6.720692   -5.657829    1.080717 H         1 <1>         0.210110 
    133 H          -1.293544   -5.436658   -1.747522 H         1 <1>         0.023587 
    134 H          -2.808121   -5.317274   -2.642465 H         1 <1>         0.023587 
    135 H          -1.336439   -4.591311   -3.304848 H         1 <1>         0.023587 
    136 H           9.782613    0.029903    2.079542 H         1 <1>         0.209508 
    137 H          -2.455616   -4.502209    0.290616 H         1 <1>         0.023587 
    138 H          -3.916811   -4.477516   -0.643056 H         1 <1>         0.023587 
    139 H          -3.400516   -3.003127    0.212618 H         1 <1>         0.023587 
    140 H           7.111053    4.061022    0.120281 H         1 <1>         0.030829 
    141 H           6.672493    2.609725   -0.764647 H         1 <1>         0.030829 
    142 H           6.699581    5.513521   -1.741341 H         1 <1>         0.057146 
    143 H           5.472213    4.924371   -4.841027 H         1 <1>         0.027427 
    144 H           7.170799    4.386920   -5.008853 H         1 <1>         0.027427 
    145 H           6.786663    5.859028   -4.083855 H         1 <1>         0.027427 
    146 H           6.844883    1.928357   -3.467271 H         1 <1>         0.027427 
    147 H           5.288457    2.083487   -2.595570 H         1 <1>         0.027427 
    148 H           5.364044    2.435416   -4.325011 H         1 <1>         0.027427 
@<TRIPOS>BOND
     1    2    1 1    
     2    1    6 1    
     3    1   71 1    
     4    1   72 1    
     5    2    3 1    
     6   42    2 1    
     7    2   73 1    
     8    3    4 1    
     9    3   60 1    
    10    3   65 1    
    11    4    5 1    
    12    4    7 1    
    13    4   64 1    
    14    6    5 1    
    15    5   10 1    
    16    5   41 1    
    17    6   74 1    
    18    6   75 1    
    19    7    8 1    
    20    7   76 1    
    21    7   77 1    
    22    8    9 1    
    23    8   78 1    
    24    8   79 1    
    25   10    9 1    
    26    9   11 1    
    27    9   40 1    
    28   10   14 1    
    29   10   63 1    
    30   11   12 1    
    31   11   17 1    
    32   11   44 1    
    33   13   12 1    
    34   12   15 1    
    35   12   59 1    
    36   14   13 1    
    37   13   39 1    
    38   13   80 1    
    39   14   81 1    
    40   14   82 1    
    41   16   15 1    
    42   15   18 1    
    43   15   61 1    
    44   17   16 1    
    45   16   83 1    
    46   16   84 1    
    47   17   85 1    
    48   17   86 1    
    49   18   19 1    
    50   18   38 1    
    51   18   43 1    
    52   19   66 1    
    53   19   87 1    
    54   19   88 1    
    55   21   20 1    
    56   20   25 1    
    57   20   51 1    
    58   20   89 1    
    59   22   21 1    
    60   21   50 1    
    61   21   90 1    
    62   22   23 1    
    63   43   22 1    
    64   22   91 1    
    65   23   24 1    
    66   24   25 1    
    67   24   45 1    
    68   24   92 1    
    69   25   49 1    
    70   25   93 1    
    71   27   26 1    
    72   26   31 1    
    73   26   47 1    
    74   26   94 1    
    75   27   28 1    
    76   52   27 1    
    77   27   95 1    
    78   28   29 1    
    79   28   42 1    
    80   28   96 1    
    81   29   30 1    
    82   31   30 1    
    83   30   46 1    
    84   30   97 1    
    85   31   55 1    
    86   31   98 1    
    87   33   32 1    
    88   32   37 1    
    89   32   54 1    
    90   32   99 1    
    91   34   33 1    
    92   33   58 1    
    93   33  100 1    
    94   34   35 1    
    95   34   52 1    
    96   34  101 1    
    97   35   36 1    
    98   36   37 1    
    99   36   53 1    
   100   36  102 1    
   101   37   56 1    
   102   37  103 1    
   103   38  104 1    
   104   38  105 1    
   105   38  106 1    
   106   39  107 1    
   107   40  108 1    
   108   40  109 1    
   109   40  110 1    
   110   41  111 1    
   111   41  112 1    
   112   41  113 1    
   113   44  114 1    
   114   44  115 1    
   115   44  116 1    
   116   45   62 1    
   117   45  117 1    
   118   45  118 1    
   119   46   48 1    
   120   46  119 1    
   121   46  120 1    
   122   47  121 1    
   123   48  122 1    
   124   49  123 1    
   125   50  124 1    
   126   51  125 1    
   127   53   57 1    
   128   53  126 1    
   129   53  127 1    
   130   54  128 1    
   131   55  129 1    
   132   56  130 1    
   133   57  131 1    
   134   58  132 1    
   135   60  133 1    
   136   60  134 1    
   137   60  135 1    
   138   62  136 1    
   139   65  137 1    
   140   65  138 1    
   141   65  139 1    
   142   66   67 1    
   143   66  140 1    
   144   66  141 1    
   145   67   68 2    
   146   67  142 1    
   147   68   69 1    
   148   68   70 1    
   149   69  143 1    
   150   69  144 1    
   151   69  145 1    
   152   70  146 1    
   153   70  147 1    
   154   70  148 1    
@<TRIPOS>SUBSTRUCTURE
     1 ****       32 TEMP              0 ****  ****    0 ROOT 
@<TRIPOS>NORMAL
@<TRIPOS>FF_PBC
FORCE_FIELD_SETUP_FEATURE Force Field Setup information
v1.0  0 0.000000 0.000000 0.000000 0.000000 0.000000 0.000000 NONE 0 0 0 0 1 0 0 0 0 0 0 0 0
