@<TRIPOS>MOLECULE
MOL000711
   18    17     1     1     0
SMALL
GASTEIGER


@<TRIPOS>ATOM
      1 C          -0.320127    0.436197   -0.000039 C.2       1 <1>        -0.065601 
      2 C          -1.610425   -0.284943    0.000002 C.2       1 <1>        -0.059033 
      3 C           0.865584   -0.186842   -0.000130 C.2       1 <1>        -0.084265 
      4 C          -2.793399    0.343308    0.000010 C.2       1 <1>        -0.022455 
      5 C           2.164551    0.583788   -0.000170 C.3       1 <1>        -0.037316 
      6 C          -4.086741   -0.365120    0.000059 C.2       1 <1>         0.143100 
      7 C           3.398611   -0.354465    0.000167 C.3       1 <1>        -0.061811 
      8 O          -5.127729    0.271341    0.000054 O.2       1 <1>        -0.296320 
      9 H          -0.331706    1.527006   -0.000004 H         1 <1>         0.061449 
     10 H          -1.593425   -1.375485    0.000037 H         1 <1>         0.061844 
     11 H           0.896877   -1.277271   -0.000184 H         1 <1>         0.057195 
     12 H          -2.829494    1.433062   -0.000027 H         1 <1>         0.064938 
     13 H           2.198637    1.227368   -0.894505 H         1 <1>         0.030476 
     14 H           2.198470    1.227788    0.893875 H         1 <1>         0.030476 
     15 H          -4.138451   -1.453589    0.000101 H         1 <1>         0.107515 
     16 H           4.327138    0.238325    0.000151 H         1 <1>         0.023270 
     17 H           3.390714   -0.995145    0.895949 H         1 <1>         0.023270 
     18 H           3.390917   -0.995522   -0.895345 H         1 <1>         0.023270 
@<TRIPOS>BOND
     1    1    2 1    
     2    1    3 2    
     3    1    9 1    
     4    2    4 2    
     5    2   10 1    
     6    3    5 1    
     7    3   11 1    
     8    4    6 1    
     9    4   12 1    
    10    5    7 1    
    11    5   13 1    
    12    5   14 1    
    13    6    8 2    
    14    6   15 1    
    15    7   16 1    
    16    7   17 1    
    17    7   18 1    
@<TRIPOS>SUBSTRUCTURE
     1 ****        1 TEMP              0 ****  ****    0 ROOT 
@<TRIPOS>NORMAL
@<TRIPOS>FF_PBC
FORCE_FIELD_SETUP_FEATURE Force Field Setup information
v1.0  0 0.000000 0.000000 0.000000 0.000000 0.000000 0.000000 NONE 0 0 0 0 1 0 0 0 0 0 0 0 0
