@<TRIPOS>MOLECULE
MOL002106
   28    27     1     1     0
SMALL
GASTEIGER


@<TRIPOS>ATOM
      1 C           0.152416   -0.225870   -0.278368 C.3       1 <1>         0.159075 
      2 C          -0.791000    0.930765   -0.704601 C.3       1 <1>        -0.001849 
      3 O           1.446298    0.238543    0.164929 O.3       1 <1>        -0.351585 
      4 O          -0.457337   -0.883841    0.848588 O.3       1 <1>        -0.351585 
      5 C          -2.242391    0.433251   -0.952262 C.3       1 <1>        -0.051326 
      6 C           2.261664    0.846848   -0.855489 C.3       1 <1>         0.047829 
      7 C           0.309995   -1.992654    1.357651 C.3       1 <1>         0.047829 
      8 C          -3.166471    1.593373   -1.406782 C.3       1 <1>        -0.065119 
      9 C           3.652338    1.119711   -0.234659 C.3       1 <1>        -0.041468 
     10 C          -0.483851   -2.618175    2.528677 C.3       1 <1>        -0.041468 
     11 H           0.247514   -0.946561   -1.108928 H         1 <1>         0.090928 
     12 H          -0.791164    1.687410    0.096064 H         1 <1>         0.031381 
     13 H          -0.425771    1.397643   -1.632009 H         1 <1>         0.031381 
     14 H          -2.235613   -0.349925   -1.728584 H         1 <1>         0.026420 
     15 H          -2.652973   -0.003462   -0.026631 H         1 <1>         0.026420 
     16 H           2.381906    0.175619   -1.722178 H         1 <1>         0.055790 
     17 H           1.840671    1.806381   -1.194089 H         1 <1>         0.055790 
     18 H           0.464195   -2.755879    0.576877 H         1 <1>         0.055790 
     19 H           1.292701   -1.658102    1.729728 H         1 <1>         0.055790 
     20 H          -4.190265    1.220936   -1.569958 H         1 <1>         0.022979 
     21 H          -3.198941    2.381140   -0.637950 H         1 <1>         0.022979 
     22 H          -2.800589    2.032686   -2.347928 H         1 <1>         0.022979 
     23 H           4.323504    1.585155   -0.973712 H         1 <1>         0.025173 
     24 H           3.550999    1.794679    0.629582 H         1 <1>         0.025173 
     25 H           4.100873    0.174087    0.107782 H         1 <1>         0.025173 
     26 H           0.062862   -3.474567    2.953931 H         1 <1>         0.025173 
     27 H          -0.639477   -1.866536    3.318227 H         1 <1>         0.025173 
     28 H          -1.466559   -2.963660    2.171715 H         1 <1>         0.025173 
@<TRIPOS>BOND
     1    1    2 1    
     2    1    3 1    
     3    1    4 1    
     4    1   11 1    
     5    2    5 1    
     6    2   12 1    
     7    2   13 1    
     8    3    6 1    
     9    4    7 1    
    10    5    8 1    
    11    5   14 1    
    12    5   15 1    
    13    6    9 1    
    14    6   16 1    
    15    6   17 1    
    16    7   10 1    
    17    7   18 1    
    18    7   19 1    
    19    8   20 1    
    20    8   21 1    
    21    8   22 1    
    22    9   23 1    
    23    9   24 1    
    24    9   25 1    
    25   10   26 1    
    26   10   27 1    
    27   10   28 1    
@<TRIPOS>SUBSTRUCTURE
     1 ****        1 TEMP              0 ****  ****    0 ROOT 
@<TRIPOS>NORMAL
@<TRIPOS>FF_PBC
FORCE_FIELD_SETUP_FEATURE Force Field Setup information
v1.0  0 0.000000 0.000000 0.000000 0.000000 0.000000 0.000000 NONE 0 0 0 0 1 0 0 0 0 0 0 0 0
