@<TRIPOS>MOLECULE
MOL012970
   82    86     1     1     0
SMALL
GASTEIGER


@<TRIPOS>ATOM
      1 C          -4.869637    2.017652   -2.163249 C.3       1 <1>        -0.040697 
      2 C          -5.795854    0.949550   -1.516105 C.3       1 <1>        -0.049212 
      3 C          -5.162171   -0.461559   -1.607882 C.3       1 <1>        -0.037513 
      4 C          -3.750151   -0.559340   -0.956486 C.3       1 <1>         0.062686 
      5 C          -2.839923    0.612890   -1.418468 C.3       1 <1>        -0.001891 
      6 C          -3.492999    2.034404   -1.422026 C.3       1 <1>        -0.033781 
      7 C          -3.800887   -0.546953    0.598013 C.3       1 <1>        -0.036964 
      8 C          -2.378743   -0.652118    1.242618 C.3       1 <1>        -0.042414 
      9 C          -1.305160    0.392399    0.763801 C.3       1 <1>        -0.005087 
     10 C          -1.481829    0.322850   -0.762518 C.2       1 <1>        -0.062664 
     11 C           0.182348    0.036889    1.285507 C.3       1 <1>        -0.019371 
     12 C           0.924639   -1.027759    0.374999 C.3       1 <1>        -0.025655 
     13 C           0.815937   -0.608677   -1.127912 C.3       1 <1>        -0.030613 
     14 C          -0.503232   -0.082803   -1.578066 C.2       1 <1>        -0.083627 
     15 C           1.143978    1.277322    1.281798 C.3       1 <1>        -0.046268 
     16 C           2.630242    0.999610    1.683399 C.3       1 <1>        -0.048607 
     17 C           3.307986   -0.102001    0.818006 C.3       1 <1>        -0.027669 
     18 C           2.434326   -1.409378    0.754526 C.3       1 <1>        -0.022627 
     19 C           4.863518   -0.287729    1.028835 C.3       1 <1>        -0.003164 
     20 C           5.403206   -1.219211   -0.108025 C.3       1 <1>         0.086418 
     21 C           4.638164   -2.568246   -0.223004 C.3       1 <1>         0.082079 
     22 C           3.101375   -2.316091   -0.347279 C.3       1 <1>        -0.018438 
     23 C          -5.587893    3.398926   -2.135406 C.3       1 <1>        -0.062153 
     24 C          -1.716353    1.793586    1.340869 C.3       1 <1>        -0.055323 
     25 O           5.318604   -0.501582   -1.359782 O.3       1 <1>        -0.388697 
     26 C          -2.505728    3.054505   -2.062306 C.3       1 <1>        -0.061601 
     27 C           2.448497   -2.250595    2.082372 C.3       1 <1>        -0.058928 
     28 O           5.053282   -3.490039    0.802611 O.3       1 <1>        -0.389202 
     29 C           0.033629   -0.451033    2.774759 C.3       1 <1>        -0.058491 
     30 C          -3.179551   -1.889344   -1.438148 C.2       1 <1>         0.266390 
     31 C           5.602616    1.086516    0.873751 C.3       1 <1>        -0.057105 
     32 C           5.301833   -0.827150    2.428268 C.3       1 <1>        -0.057105 
     33 O          -3.077032   -2.869519   -0.718722 O.2       1 <1>        -0.264536 
     34 O          -2.793219   -1.934091   -2.717544 O.3       1 <1>        -0.330836 
     35 H          -4.716817    1.746346   -3.222500 H         1 <1>         0.030089 
     36 H          -6.762232    0.925438   -2.049103 H         1 <1>         0.026823 
     37 H          -6.008358    1.212092   -0.468727 H         1 <1>         0.026823 
     38 H          -5.833703   -1.199650   -1.140605 H         1 <1>         0.027568 
     39 H          -5.093080   -0.712022   -2.678748 H         1 <1>         0.027568 
     40 H          -2.766657    0.470672   -2.507896 H         1 <1>         0.035871 
     41 H          -3.738326    2.380980   -0.418211 H         1 <1>         0.030671 
     42 H          -4.407018   -1.402382    0.940860 H         1 <1>         0.027586 
     43 H          -4.325043    0.351524    0.946922 H         1 <1>         0.027586 
     44 H          -1.988067   -1.660850    1.052872 H         1 <1>         0.027403 
     45 H          -2.559107   -0.571055    2.324945 H         1 <1>         0.027403 
     46 H           0.321748   -1.948074    0.436178 H         1 <1>         0.031461 
     47 H           0.929572   -1.509289   -1.754244 H         1 <1>         0.031042 
     48 H           1.532602    0.145997   -1.470704 H         1 <1>         0.031042 
     49 H          -0.628329   -0.080323   -2.664386 H         1 <1>         0.057198 
     50 H           0.820274    2.046935    1.996495 H         1 <1>         0.027096 
     51 H           1.121095    1.738625    0.282546 H         1 <1>         0.027096 
     52 H           3.151897    1.959570    1.535842 H         1 <1>         0.026846 
     53 H           2.734445    0.763917    2.749635 H         1 <1>         0.026846 
     54 H           3.281420    0.339909   -0.183872 H         1 <1>         0.031212 
     55 H           6.466006   -1.446886    0.086368 H         1 <1>         0.062439 
     56 H           4.989650   -3.045906   -1.158894 H         1 <1>         0.061925 
     57 H           2.564058   -3.274750   -0.423094 H         1 <1>         0.029632 
     58 H           3.055303   -1.825525   -1.328022 H         1 <1>         0.029632 
     59 H          -5.027676    4.155940   -2.702123 H         1 <1>         0.023250 
     60 H          -6.586551    3.322892   -2.592999 H         1 <1>         0.023250 
     61 H          -5.711338    3.751675   -1.100384 H         1 <1>         0.023250 
     62 H          -1.317219    2.598488    0.709528 H         1 <1>         0.023829 
     63 H          -2.791899    1.927490    1.447771 H         1 <1>         0.023829 
     64 H          -1.375491    1.985577    2.362360 H         1 <1>         0.023829 
     65 H           5.702595   -0.955493   -2.103950 H         1 <1>         0.209912 
     66 H          -2.821146    4.092604   -1.879060 H         1 <1>         0.023268 
     67 H          -1.495627    2.939278   -1.644084 H         1 <1>         0.023268 
     68 H          -2.437340    2.895329   -3.149280 H         1 <1>         0.023268 
     69 H           2.717194   -1.659326    2.963533 H         1 <1>         0.023526 
     70 H           3.152782   -3.084107    2.071377 H         1 <1>         0.023526 
     71 H           1.489209   -2.748789    2.270171 H         1 <1>         0.023526 
     72 H           4.677038   -4.360090    0.706192 H         1 <1>         0.209888 
     73 H           0.953399   -0.442308    3.352111 H         1 <1>         0.023542 
     74 H          -0.371335   -1.470512    2.826437 H         1 <1>         0.023542 
     75 H          -0.625657    0.180256    3.379224 H         1 <1>         0.023542 
     76 H           6.689168    0.935636    0.779344 H         1 <1>         0.023588 
     77 H           5.446467    1.734072    1.749334 H         1 <1>         0.023588 
     78 H           5.271585    1.636165   -0.020056 H         1 <1>         0.023588 
     79 H           6.396840   -0.770819    2.527920 H         1 <1>         0.023588 
     80 H           4.866713   -0.224709    3.238273 H         1 <1>         0.023588 
     81 H           5.045788   -1.874400    2.602397 H         1 <1>         0.023588 
     82 H          -2.432159   -2.780111   -2.956690 H         1 <1>         0.220226 
@<TRIPOS>BOND
     1    1    2 1    
     2    1    6 1    
     3    1   23 1    
     4    1   35 1    
     5    2    3 1    
     6    2   36 1    
     7    2   37 1    
     8    3    4 1    
     9    3   38 1    
    10    3   39 1    
    11    4    5 1    
    12    4    7 1    
    13    4   30 1    
    14    5    6 1    
    15    5   10 1    
    16    5   40 1    
    17    6   26 1    
    18    6   41 1    
    19    7    8 1    
    20    7   42 1    
    21    7   43 1    
    22    8    9 1    
    23    8   44 1    
    24    8   45 1    
    25    9   10 1    
    26    9   11 1    
    27    9   24 1    
    28   10   14 2    
    29   11   12 1    
    30   11   15 1    
    31   11   29 1    
    32   12   13 1    
    33   12   18 1    
    34   12   46 1    
    35   13   14 1    
    36   13   47 1    
    37   13   48 1    
    38   14   49 1    
    39   15   16 1    
    40   15   50 1    
    41   15   51 1    
    42   16   17 1    
    43   16   52 1    
    44   16   53 1    
    45   17   18 1    
    46   17   19 1    
    47   17   54 1    
    48   18   22 1    
    49   18   27 1    
    50   19   20 1    
    51   19   31 1    
    52   19   32 1    
    53   20   21 1    
    54   20   25 1    
    55   20   55 1    
    56   21   22 1    
    57   21   28 1    
    58   21   56 1    
    59   22   57 1    
    60   22   58 1    
    61   23   59 1    
    62   23   60 1    
    63   23   61 1    
    64   24   62 1    
    65   24   63 1    
    66   24   64 1    
    67   25   65 1    
    68   26   66 1    
    69   26   67 1    
    70   26   68 1    
    71   27   69 1    
    72   27   70 1    
    73   27   71 1    
    74   28   72 1    
    75   29   73 1    
    76   29   74 1    
    77   29   75 1    
    78   30   33 2    
    79   30   34 1    
    80   31   76 1    
    81   31   77 1    
    82   31   78 1    
    83   32   79 1    
    84   32   80 1    
    85   32   81 1    
    86   34   82 1    
@<TRIPOS>SUBSTRUCTURE
     1 ****        1 TEMP              0 ****  ****    0 ROOT 
@<TRIPOS>NORMAL
@<TRIPOS>FF_PBC
FORCE_FIELD_SETUP_FEATURE Force Field Setup information
v1.0  0 0.000000 0.000000 0.000000 0.000000 0.000000 0.000000 NONE 0 0 0 0 1 0 0 0 0 0 0 0 0
