@<TRIPOS>MOLECULE
MOL000114
   20    20     1     1     0
SMALL
GASTEIGER


@<TRIPOS>ATOM
      1 C           0.204234   -1.362098    0.016849 C.ar      1 <1>         0.048876 
      2 C          -0.564595   -0.192109   -0.008244 C.ar      1 <1>        -0.016294 
      3 C           0.052788    1.066278   -0.006708 C.ar      1 <1>         0.106143 
      4 C           1.450563    1.147452    0.019073 C.ar      1 <1>         0.102475 
      5 C           2.219691   -0.017721    0.042123 C.ar      1 <1>        -0.028660 
      6 C           1.600016   -1.269847    0.041106 C.ar      1 <1>        -0.046288 
      7 C          -0.465192   -2.720845    0.018022 C.2       1 <1>         0.291319 
      8 O          -1.684249   -2.797572   -0.002039 O.2       1 <1>        -0.259428 
      9 O           0.281476   -3.828302    0.041145 O.3       1 <1>        -0.327489 
     10 O          -0.680776    2.263077   -0.030171 O.3       1 <1>        -0.345328 
     11 C          -2.117331    2.285090   -0.064525 C.3       1 <1>         0.043136 
     12 O           2.090668    2.389379    0.022042 O.3       1 <1>        -0.357268 
     13 H          -1.643098   -0.281268   -0.028757 H         1 <1>         0.065186 
     14 H           3.302033    0.057770    0.060867 H         1 <1>         0.064423 
     15 H           2.209762   -2.167838    0.059317 H         1 <1>         0.062608 
     16 H          -0.244820   -4.620768    0.039773 H         1 <1>         0.220555 
     17 H          -2.435420    3.337944   -0.079598 H         1 <1>         0.052871 
     18 H          -2.499354    1.795639   -0.973644 H         1 <1>         0.052871 
     19 H          -2.542663    1.808599    0.832111 H         1 <1>         0.052871 
     20 H           1.464265    3.107141    0.006257 H         1 <1>         0.217422 
@<TRIPOS>BOND
     1    1    2 ar   
     2    1    6 ar   
     3    1    7 1    
     4    2    3 ar   
     5    2   13 1    
     6    3    4 ar   
     7    3   10 1    
     8    4    5 ar   
     9    4   12 1    
    10    5    6 ar   
    11    5   14 1    
    12    6   15 1    
    13    7    8 2    
    14    7    9 1    
    15    9   16 1    
    16   10   11 1    
    17   11   17 1    
    18   11   18 1    
    19   11   19 1    
    20   12   20 1    
@<TRIPOS>SUBSTRUCTURE
     1 ****        1 TEMP              0 ****  ****    0 ROOT 
@<TRIPOS>NORMAL
@<TRIPOS>FF_PBC
FORCE_FIELD_SETUP_FEATURE Force Field Setup information
v1.0  0 0.000000 0.000000 0.000000 0.000000 0.000000 0.000000 NONE 0 0 0 0 1 0 0 0 0 0 0 0 0
