@<TRIPOS>MOLECULE
MOL004612
   35    34     1     1     0
SMALL
GASTEIGER


@<TRIPOS>ATOM
      1 C          -0.004848   -1.294528    0.685837 C.3       1 <1>        -0.043880 
      2 C           1.356370   -0.591334    0.380738 C.3       1 <1>        -0.050459 
      3 C          -1.146874   -0.265552    0.950565 C.3       1 <1>        -0.050468 
      4 C           1.378035    0.272201   -0.912519 C.3       1 <1>        -0.052824 
      5 C          -2.436332   -0.907034    1.536935 C.3       1 <1>        -0.053064 
      6 C          -0.383647   -2.318956   -0.422178 C.3       1 <1>        -0.062415 
      7 C           2.778355    0.907147   -1.139178 C.3       1 <1>        -0.053297 
      8 C          -3.489713    0.175619    1.901425 C.3       1 <1>        -0.055903 
      9 C           2.806984    1.775658   -2.426641 C.3       1 <1>        -0.055911 
     10 C          -4.779022   -0.462719    2.481231 C.3       1 <1>        -0.065276 
     11 C           4.207386    2.402983   -2.652132 C.3       1 <1>        -0.065276 
     12 H           0.152343   -1.865588    1.618784 H         1 <1>         0.029813 
     13 H           1.622944    0.052680    1.235197 H         1 <1>         0.026785 
     14 H           2.139773   -1.362915    0.297055 H         1 <1>         0.026785 
     15 H          -0.781680    0.486575    1.668802 H         1 <1>         0.026785 
     16 H          -1.414071    0.253792    0.017409 H         1 <1>         0.026785 
     17 H           1.130667   -0.349703   -1.786734 H         1 <1>         0.026537 
     18 H           0.637995    1.083917   -0.839534 H         1 <1>         0.026537 
     19 H          -2.886265   -1.593112    0.802525 H         1 <1>         0.026528 
     20 H          -2.183310   -1.482545    2.442326 H         1 <1>         0.026528 
     21 H          -1.180692   -2.995033   -0.078687 H         1 <1>         0.023242 
     22 H           0.485626   -2.941486   -0.684621 H         1 <1>         0.023242 
     23 H          -0.735697   -1.807691   -1.330198 H         1 <1>         0.023242 
     24 H           3.039676    1.536619   -0.272520 H         1 <1>         0.026520 
     25 H           3.533274    0.108256   -1.225168 H         1 <1>         0.026520 
     26 H          -3.067525    0.868401    2.648587 H         1 <1>         0.026265 
     27 H          -3.748929    0.756894    1.000620 H         1 <1>         0.026265 
     28 H           2.547205    1.152767   -3.298868 H         1 <1>         0.026265 
     29 H           2.060017    2.582917   -2.344741 H         1 <1>         0.026265 
     30 H          -5.508682    0.321974    2.736879 H         1 <1>         0.022978 
     31 H          -5.237909   -1.140379    1.744467 H         1 <1>         0.022978 
     32 H          -4.547635   -1.035710    3.392737 H         1 <1>         0.022978 
     33 H           4.205530    3.015568   -3.567651 H         1 <1>         0.022978 
     34 H           4.482205    3.045906   -1.801360 H         1 <1>         0.022978 
     35 H           4.968744    1.614714   -2.760089 H         1 <1>         0.022978 
@<TRIPOS>BOND
     1    1    2 1    
     2    1    3 1    
     3    1    6 1    
     4    1   12 1    
     5    2    4 1    
     6    2   13 1    
     7    2   14 1    
     8    3    5 1    
     9    3   15 1    
    10    3   16 1    
    11    4    7 1    
    12    4   17 1    
    13    4   18 1    
    14    5    8 1    
    15    5   19 1    
    16    5   20 1    
    17    6   21 1    
    18    6   22 1    
    19    6   23 1    
    20    7    9 1    
    21    7   24 1    
    22    7   25 1    
    23    8   10 1    
    24    8   26 1    
    25    8   27 1    
    26    9   11 1    
    27    9   28 1    
    28    9   29 1    
    29   10   30 1    
    30   10   31 1    
    31   10   32 1    
    32   11   33 1    
    33   11   34 1    
    34   11   35 1    
@<TRIPOS>SUBSTRUCTURE
     1 ****        1 TEMP              0 ****  ****    0 ROOT 
@<TRIPOS>NORMAL
@<TRIPOS>FF_PBC
FORCE_FIELD_SETUP_FEATURE Force Field Setup information
v1.0  0 0.000000 0.000000 0.000000 0.000000 0.000000 0.000000 NONE 0 0 0 0 1 0 0 0 0 0 0 0 0
