@<TRIPOS>MOLECULE
MOL012240
   31    33     1     1     0
SMALL
GASTEIGER


@<TRIPOS>ATOM
      1 C          -0.948913   -0.472638    0.000155 C.2       1 <1>         0.096408 
      2 C          -0.909539   -1.814791    0.000584 C.2       1 <1>         0.017003 
      3 C          -2.141231   -2.613785    0.000416 C.2       1 <1>         0.193510 
      4 O          -2.085212   -3.832691    0.000565 O.2       1 <1>        -0.287017 
      5 C          -3.452882   -1.872133    0.000070 C.ar      1 <1>         0.081945 
      6 C          -4.768794   -2.556569    0.000072 C.ar      1 <1>         0.088313 
      7 C          -5.950790   -1.774112   -0.000149 C.ar      1 <1>        -0.001303 
      8 C          -5.873307   -0.294667   -0.000394 C.ar      1 <1>         0.077519 
      9 C          -4.607135    0.335080   -0.000464 C.ar      1 <1>        -0.000531 
     10 C          -3.370481   -0.478881   -0.000244 C.ar      1 <1>         0.098805 
     11 O          -2.130431    0.164634   -0.000334 O.3       1 <1>        -0.307627 
     12 C           0.293796    0.405296    0.000188 C.ar      1 <1>         0.037811 
     13 C           0.131609    1.887495    0.000378 C.ar      1 <1>         0.111916 
     14 C           1.264457    2.741058    0.000385 C.ar      1 <1>         0.102858 
     15 C           2.632755    2.169949    0.000248 C.ar      1 <1>        -0.029366 
     16 C           2.802446    0.787477    0.000078 C.ar      1 <1>        -0.058530 
     17 C           1.626371   -0.113788    0.000015 C.ar      1 <1>        -0.049474 
     18 O          -7.056980    0.447693   -0.000552 O.3       1 <1>        -0.359667 
     19 O          -4.824285   -3.952848    0.000289 O.3       1 <1>        -0.358955 
     20 O           1.065891    4.125448    0.000528 O.3       1 <1>        -0.357260 
     21 O          -1.146654    2.454230    0.000550 O.3       1 <1>        -0.356741 
     22 H          -0.002955   -2.411175    0.001077 H         1 <1>         0.068220 
     23 H          -6.927487   -2.244492   -0.000146 H         1 <1>         0.066923 
     24 H          -4.520747    1.415860   -0.000664 H         1 <1>         0.066947 
     25 H           3.500902    2.820904    0.000283 H         1 <1>         0.064404 
     26 H           3.803180    0.365689   -0.000010 H         1 <1>         0.061858 
     27 H           1.830213   -1.175016   -0.000184 H         1 <1>         0.062507 
     28 H          -6.931400    1.390204   -0.000512 H         1 <1>         0.217316 
     29 H          -5.702358   -4.316770    0.000171 H         1 <1>         0.217342 
     30 H           1.872809    4.627779    0.000446 H         1 <1>         0.217422 
     31 H          -1.117782    3.405886    0.000522 H         1 <1>         0.217444 
@<TRIPOS>BOND
     1    1    2 2    
     2    1   11 1    
     3    1   12 1    
     4    2    3 1    
     5    2   22 1    
     6    3    4 2    
     7    3    5 1    
     8    5    6 1    
     9    5   10 2    
    10    6    7 2    
    11    6   19 1    
    12    7    8 1    
    13    7   23 1    
    14    8    9 2    
    15    8   18 1    
    16    9   10 1    
    17    9   24 1    
    18   10   11 1    
    19   12   13 1    
    20   12   17 2    
    21   13   14 2    
    22   13   21 1    
    23   14   15 1    
    24   14   20 1    
    25   15   16 2    
    26   15   25 1    
    27   16   17 1    
    28   16   26 1    
    29   17   27 1    
    30   18   28 1    
    31   19   29 1    
    32   20   30 1    
    33   21   31 1    
@<TRIPOS>SUBSTRUCTURE
     1 ****        1 TEMP              0 ****  ****    0 ROOT 
@<TRIPOS>NORMAL
@<TRIPOS>FF_PBC
FORCE_FIELD_SETUP_FEATURE Force Field Setup information
v1.0  0 0.000000 0.000000 0.000000 0.000000 0.000000 0.000000 NONE 0 0 0 0 1 0 0 0 0 0 0 0 0
