@<TRIPOS>MOLECULE
MOL000485
   26    27     1     1     0
SMALL
GASTEIGER


@<TRIPOS>ATOM
      1 C           0.013471    0.880237    0.458045 C.3       1 <1>        -0.014476 
      2 C          -1.366886    0.260516    0.523338 C.2       1 <1>        -0.072915 
      3 C          -1.450976   -1.077337    0.600964 C.2       1 <1>        -0.084465 
      4 C          -0.175263   -1.898973    0.593149 C.3       1 <1>        -0.031144 
      5 C           1.056087   -0.948594    0.511907 C.3       1 <1>        -0.031352 
      6 C           0.866455    0.126012   -0.598704 C.3       1 <1>        -0.025265 
      7 C           0.821481    0.162507    1.571281 C.3       1 <1>        -0.042393 
      8 C           2.192632    0.868332   -0.951730 C.3       1 <1>        -0.059007 
      9 C           0.161527   -0.293286   -1.925858 C.3       1 <1>        -0.059007 
     10 C          -2.551303    1.192776    0.499595 C.3       1 <1>        -0.043506 
     11 H           0.059638    1.980844    0.447824 H         1 <1>         0.035088 
     12 H          -2.414467   -1.583570    0.661800 H         1 <1>         0.057172 
     13 H          -0.169587   -2.594839   -0.259865 H         1 <1>         0.031025 
     14 H          -0.119279   -2.491200    1.520028 H         1 <1>         0.031025 
     15 H           2.034216   -1.455553    0.542657 H         1 <1>         0.030925 
     16 H           1.736064    0.696377    1.870282 H         1 <1>         0.027406 
     17 H           0.260108   -0.124919    2.476185 H         1 <1>         0.027406 
     18 H           1.964143    1.763188   -1.550176 H         1 <1>         0.023525 
     19 H           2.833185    0.203590   -1.550893 H         1 <1>         0.023525 
     20 H           2.778528    1.193870   -0.082385 H         1 <1>         0.023525 
     21 H          -0.817617   -0.774624   -1.813064 H         1 <1>         0.023525 
     22 H           0.813246   -0.991085   -2.472719 H         1 <1>         0.023525 
     23 H           0.007604    0.600854   -2.548352 H         1 <1>         0.023525 
     24 H          -2.494178    1.880429    1.356587 H         1 <1>         0.027445 
     25 H          -3.504683    0.645775    0.551807 H         1 <1>         0.027445 
     26 H          -2.533948    1.778471   -0.431699 H         1 <1>         0.027445 
@<TRIPOS>BOND
     1    1    2 1    
     2    1    6 1    
     3    1    7 1    
     4    1   11 1    
     5    2    3 2    
     6    2   10 1    
     7    3    4 1    
     8    3   12 1    
     9    4    5 1    
    10    4   13 1    
    11    4   14 1    
    12    5    6 1    
    13    5    7 1    
    14    5   15 1    
    15    6    8 1    
    16    6    9 1    
    17    7   16 1    
    18    7   17 1    
    19    8   18 1    
    20    8   19 1    
    21    8   20 1    
    22    9   21 1    
    23    9   22 1    
    24    9   23 1    
    25   10   24 1    
    26   10   25 1    
    27   10   26 1    
@<TRIPOS>SUBSTRUCTURE
     1 ****        1 TEMP              0 ****  ****    0 ROOT 
@<TRIPOS>NORMAL
@<TRIPOS>FF_PBC
FORCE_FIELD_SETUP_FEATURE Force Field Setup information
v1.0  0 0.000000 0.000000 0.000000 0.000000 0.000000 0.000000 NONE 0 0 0 0 1 0 0 0 0 0 0 0 0
