@<TRIPOS>MOLECULE
MOL005402
   56    55     1     1     0
SMALL
GASTEIGER


@<TRIPOS>ATOM
      1 O           4.751523    9.216982   -0.042013 O.3       1 <1>        -0.318522 
      2 O           5.499451    8.354551   -1.919988 O.2       1 <1>        -0.264985 
      3 C          -0.542433   -0.324493   -0.188943 C.3       1 <1>        -0.053057 
      4 C          -0.564486   -1.841812    0.143063 C.3       1 <1>        -0.053057 
      5 C           0.854781    0.298349    0.081211 C.3       1 <1>        -0.053057 
      6 C          -1.967620   -2.454651   -0.119402 C.3       1 <1>        -0.053057 
      7 C           0.879725    1.806543   -0.290268 C.3       1 <1>        -0.053057 
      8 C          -1.988099   -3.978852    0.179229 C.3       1 <1>        -0.053057 
      9 C           2.269503    2.440258   -0.007547 C.3       1 <1>        -0.053057 
     10 C          -3.394728   -4.585252   -0.079450 C.3       1 <1>        -0.053057 
     11 C           2.300188    3.937837   -0.419388 C.3       1 <1>        -0.053045 
     12 C          -3.413517   -6.113862    0.196096 C.3       1 <1>        -0.053065 
     13 C           3.681499    4.582526   -0.120301 C.3       1 <1>        -0.052596 
     14 C          -4.821846   -6.716647   -0.061029 C.3       1 <1>        -0.053306 
     15 C           3.719136    6.069363   -0.569275 C.3       1 <1>        -0.044055 
     16 C          -4.840271   -8.246995    0.202678 C.3       1 <1>        -0.055911 
     17 C           5.095771    6.722419   -0.266180 C.3       1 <1>         0.033189 
     18 C          -6.248071   -8.845322   -0.053780 C.3       1 <1>        -0.065276 
     19 C           5.129278    8.150595   -0.775414 C.2       1 <1>         0.261905 
     20 C           4.439442    9.009865    1.349243 C.3       1 <1>         0.045865 
     21 H          -1.296761    0.194658    0.425090 H         1 <1>         0.026528 
     22 H          -0.804669   -0.182817   -1.250354 H         1 <1>         0.026528 
     23 H           0.182490   -2.360716   -0.480014 H         1 <1>         0.026528 
     24 H          -0.293810   -1.989397    1.201590 H         1 <1>         0.026528 
     25 H           1.107149    0.178773    1.147746 H         1 <1>         0.026528 
     26 H           1.613592   -0.234749   -0.515049 H         1 <1>         0.026528 
     27 H          -2.710804   -1.947546    0.517913 H         1 <1>         0.026528 
     28 H          -2.246039   -2.288592   -1.173111 H         1 <1>         0.026528 
     29 H           0.639177    1.919506   -1.360239 H         1 <1>         0.026528 
     30 H           0.111651    2.339528    0.294101 H         1 <1>         0.026528 
     31 H          -1.249390   -4.485107   -0.463842 H         1 <1>         0.026528 
     32 H          -1.704822   -4.149298    1.230963 H         1 <1>         0.026528 
     33 H           2.498526    2.350528    1.067138 H         1 <1>         0.026528 
     34 H           3.041937    1.892553   -0.572187 H         1 <1>         0.026528 
     35 H          -4.131152   -4.087760    0.573097 H         1 <1>         0.026528 
     36 H          -3.683268   -4.402133   -1.127663 H         1 <1>         0.026528 
     37 H           2.085185    4.020942   -1.497510 H         1 <1>         0.026529 
     38 H           1.516888    4.484154    0.131595 H         1 <1>         0.026529 
     39 H          -2.679590   -6.610808   -0.459565 H         1 <1>         0.026528 
     40 H          -3.122812   -6.299796    1.243229 H         1 <1>         0.026528 
     41 H           3.883948    4.521257    0.961717 H         1 <1>         0.026540 
     42 H           4.468226    4.021627   -0.651344 H         1 <1>         0.026540 
     43 H          -5.555136   -6.224836    0.599236 H         1 <1>         0.026520 
     44 H          -5.115466   -6.525218   -1.106303 H         1 <1>         0.026520 
     45 H           2.916306    6.623522   -0.059111 H         1 <1>         0.027004 
     46 H           3.530701    6.125661   -1.654552 H         1 <1>         0.027004 
     47 H          -4.111620   -8.744584   -0.458962 H         1 <1>         0.026265 
     48 H          -4.548962   -8.445486    1.247679 H         1 <1>         0.026265 
     49 H           5.338953    6.632669    0.801313 H         1 <1>         0.036606 
     50 H           5.872373    6.161251   -0.810664 H         1 <1>         0.036606 
     51 H          -6.553238   -8.676075   -1.098303 H         1 <1>         0.022978 
     52 H          -6.991021   -8.378477    0.611696 H         1 <1>         0.022978 
     53 H          -6.239775   -9.930218    0.137103 H         1 <1>         0.022978 
     54 H           4.119952    9.985704    1.743981 H         1 <1>         0.052962 
     55 H           3.613380    8.302124    1.508818 H         1 <1>         0.052962 
     56 H           5.326713    8.697725    1.921430 H         1 <1>         0.052962 
@<TRIPOS>BOND
     1   19    1 1    
     2    1   20 1    
     3   19    2 2    
     4    3    4 1    
     5    5    3 1    
     6    3   21 1    
     7    3   22 1    
     8    4    6 1    
     9    4   23 1    
    10    4   24 1    
    11    7    5 1    
    12    5   25 1    
    13    5   26 1    
    14    6    8 1    
    15    6   27 1    
    16    6   28 1    
    17    9    7 1    
    18    7   29 1    
    19    7   30 1    
    20    8   10 1    
    21    8   31 1    
    22    8   32 1    
    23   11    9 1    
    24    9   33 1    
    25    9   34 1    
    26   10   12 1    
    27   10   35 1    
    28   10   36 1    
    29   13   11 1    
    30   11   37 1    
    31   11   38 1    
    32   12   14 1    
    33   12   39 1    
    34   12   40 1    
    35   15   13 1    
    36   13   41 1    
    37   13   42 1    
    38   14   16 1    
    39   14   43 1    
    40   14   44 1    
    41   17   15 1    
    42   15   45 1    
    43   15   46 1    
    44   16   18 1    
    45   16   47 1    
    46   16   48 1    
    47   17   19 1    
    48   17   49 1    
    49   17   50 1    
    50   18   51 1    
    51   18   52 1    
    52   18   53 1    
    53   20   54 1    
    54   20   55 1    
    55   20   56 1    
@<TRIPOS>SUBSTRUCTURE
     1 ****        3 TEMP              0 ****  ****    0 ROOT 
@<TRIPOS>NORMAL
@<TRIPOS>FF_PBC
FORCE_FIELD_SETUP_FEATURE Force Field Setup information
v1.0  0 0.000000 0.000000 0.000000 0.000000 0.000000 0.000000 NONE 0 0 0 0 1 0 0 0 0 0 0 0 0
