@<TRIPOS>MOLECULE
MOL004071
   51    54     1     1     0
SMALL
GASTEIGER


@<TRIPOS>ATOM
      1 O           4.655746   -1.306694    0.486217 O.3       1 <1>        -0.345017 
      2 O          -4.799470    2.169846    0.663840 O.3       1 <1>        -0.345332 
      3 O          -6.108112   -0.101275   -0.394925 O.3       1 <1>        -0.345333 
      4 O           6.097214    1.097754   -0.067225 O.3       1 <1>        -0.345332 
      5 N           0.328323   -1.380806   -0.099467 N.3       1 <1>        -0.290546 
      6 C          -0.313934   -0.111145    0.311839 C.3       1 <1>         0.040262 
      7 C           0.303812    0.986925   -0.588528 C.3       1 <1>        -0.007483 
      8 C          -0.444877   -2.601241    0.216461 C.3       1 <1>         0.003799 
      9 C          -1.844948   -0.126277    0.165946 C.ar      1 <1>        -0.024136 
     10 C           1.762566   -1.451336    0.265201 C.3       1 <1>         0.027422 
     11 C          -1.737332   -2.598365   -0.632068 C.3       1 <1>        -0.014443 
     12 C          -2.544746   -1.336838   -0.329996 C.ar      1 <1>        -0.038876 
     13 C           1.826471    1.006835   -0.437919 C.ar      1 <1>        -0.038548 
     14 C           2.517656   -0.154392   -0.036064 C.ar      1 <1>         0.002343 
     15 C          -2.610259    1.011614    0.506492 C.ar      1 <1>        -0.024202 
     16 C           3.995145   -0.135694    0.099793 C.ar      1 <1>         0.110295 
     17 C          -3.944229   -1.320684   -0.507899 C.ar      1 <1>        -0.025619 
     18 C           2.584160    2.253361   -0.709884 C.ar      1 <1>        -0.055614 
     19 C          -4.079336    1.022157    0.326533 C.ar      1 <1>         0.105975 
     20 C          -4.728003   -0.106894   -0.185112 C.ar      1 <1>         0.105927 
     21 C           4.705849    1.048875   -0.169655 C.ar      1 <1>         0.105979 
     22 C           3.974792    2.271278   -0.574124 C.ar      1 <1>        -0.028872 
     23 C           5.352655   -1.261536    1.742920 C.3       1 <1>         0.043148 
     24 C          -5.527278    2.057203    1.898088 C.3       1 <1>         0.043136 
     25 C          -6.486793    0.580419   -1.601866 C.3       1 <1>         0.043136 
     26 C           6.797037    0.420136   -1.122807 C.3       1 <1>         0.043136 
     27 H          -0.091570    0.098298    1.372127 H         1 <1>         0.051551 
     28 H          -0.091086    1.981305   -0.334635 H         1 <1>         0.033171 
     29 H           0.064467    0.770783   -1.641579 H         1 <1>         0.033171 
     30 H          -0.686172   -2.631747    1.291624 H         1 <1>         0.042996 
     31 H           0.133522   -3.505171   -0.035656 H         1 <1>         0.042996 
     32 H           2.247254   -2.255234   -0.310594 H         1 <1>         0.047675 
     33 H           1.869442   -1.666405    1.340396 H         1 <1>         0.047675 
     34 H          -2.331655   -3.498077   -0.402769 H         1 <1>         0.032566 
     35 H          -1.483002   -2.598601   -1.703655 H         1 <1>         0.032566 
     36 H          -2.135322    1.901476    0.902662 H         1 <1>         0.064743 
     37 H          -4.461610   -2.198038   -0.879000 H         1 <1>         0.064693 
     38 H           2.059933    3.153394   -1.014412 H         1 <1>         0.062119 
     39 H           4.533440    3.181242   -0.765123 H         1 <1>         0.064420 
     40 H           5.754149   -2.266538    1.940548 H         1 <1>         0.052871 
     41 H           4.665618   -0.990220    2.559058 H         1 <1>         0.052871 
     42 H           6.192522   -0.552088    1.726088 H         1 <1>         0.052871 
     43 H          -4.844085    1.841130    2.734850 H         1 <1>         0.052871 
     44 H          -6.292988    1.268051    1.841460 H         1 <1>         0.052871 
     45 H          -6.026211    3.018625    2.089446 H         1 <1>         0.052871 
     46 H          -6.061104    0.073084   -2.482235 H         1 <1>         0.052871 
     47 H          -6.151680    1.629503   -1.588783 H         1 <1>         0.052871 
     48 H          -7.583414    0.563567   -1.680801 H         1 <1>         0.052871 
     49 H           6.540287    0.857269   -2.100869 H         1 <1>         0.052871 
     50 H           6.568911   -0.656793   -1.132370 H         1 <1>         0.052871 
     51 H           7.875747    0.547462   -0.950163 H         1 <1>         0.052871 
@<TRIPOS>BOND
     1   16    1 1    
     2    1   23 1    
     3   19    2 1    
     4    2   24 1    
     5   20    3 1    
     6    3   25 1    
     7   21    4 1    
     8    4   26 1    
     9    6    5 1    
    10    8    5 1    
    11    5   10 1    
    12    6    7 1    
    13    9    6 1    
    14    6   27 1    
    15    7   13 1    
    16    7   28 1    
    17    7   29 1    
    18   11    8 1    
    19    8   30 1    
    20    8   31 1    
    21   12    9 1    
    22    9   15 2    
    23   10   14 1    
    24   10   32 1    
    25   10   33 1    
    26   12   11 1    
    27   11   34 1    
    28   11   35 1    
    29   17   12 2    
    30   13   14 2    
    31   13   18 1    
    32   14   16 1    
    33   15   19 1    
    34   15   36 1    
    35   16   21 2    
    36   17   20 1    
    37   17   37 1    
    38   18   22 2    
    39   18   38 1    
    40   19   20 2    
    41   21   22 1    
    42   22   39 1    
    43   23   40 1    
    44   23   41 1    
    45   23   42 1    
    46   24   43 1    
    47   24   44 1    
    48   24   45 1    
    49   25   46 1    
    50   25   47 1    
    51   25   48 1    
    52   26   49 1    
    53   26   50 1    
    54   26   51 1    
@<TRIPOS>SUBSTRUCTURE
     1 ****        5 TEMP              0 ****  ****    0 ROOT 
@<TRIPOS>NORMAL
@<TRIPOS>FF_PBC
FORCE_FIELD_SETUP_FEATURE Force Field Setup information
v1.0  0 0.000000 0.000000 0.000000 0.000000 0.000000 0.000000 NONE 0 0 0 0 1 0 0 0 0 0 0 0 0
