@<TRIPOS>MOLECULE
MOL002335
   39    41     1     1     0
SMALL
GASTEIGER


@<TRIPOS>ATOM
      1 C           0.294468   -0.854467    0.304798 C.3       1 <1>        -0.025530 
      2 C           1.134305   -1.131821    1.587197 C.3       1 <1>        -0.028129 
      3 C           1.736891   -0.300183    0.427790 C.3       1 <1>        -0.031718 
      4 C          -0.887313    0.159441    0.309120 C.3       1 <1>        -0.013483 
      5 C          -0.827278    1.382356   -0.671985 C.3       1 <1>        -0.031384 
      6 C           1.871780    1.236394    0.526007 C.3       1 <1>        -0.049177 
      7 C           0.402989    1.527802   -1.632716 C.3       1 <1>        -0.040478 
      8 C           1.751922   -2.552146    1.709233 C.3       1 <1>        -0.059271 
      9 C           0.816305   -0.463381    2.956134 C.3       1 <1>        -0.059271 
     10 C           1.727691    1.883088   -0.876801 C.3       1 <1>        -0.049914 
     11 C          -2.102066   -0.596912   -0.163832 C.2       1 <1>        -0.072956 
     12 C          -2.199573    1.371573   -1.409275 C.3       1 <1>        -0.045725 
     13 C          -2.644343   -0.104484   -1.471409 C.3       1 <1>        -0.031438 
     14 C           0.591478    0.397791   -2.687670 C.3       1 <1>        -0.062145 
     15 C          -2.649166   -1.610370    0.519154 C.2       1 <1>        -0.099166 
     16 H           0.188462   -1.745392   -0.335251 H         1 <1>         0.031468 
     17 H           2.465969   -0.817186   -0.215754 H         1 <1>         0.030905 
     18 H          -1.150136    0.500136    1.319414 H         1 <1>         0.035122 
     19 H          -0.805998    2.315133   -0.075842 H         1 <1>         0.030925 
     20 H           2.874511    1.449944    0.931716 H         1 <1>         0.026828 
     21 H           1.147056    1.708041    1.197695 H         1 <1>         0.026828 
     22 H           0.190325    2.414856   -2.260364 H         1 <1>         0.030097 
     23 H           2.601705    1.609168   -1.491345 H         1 <1>         0.026803 
     24 H           1.779369    2.976406   -0.717340 H         1 <1>         0.026803 
     25 H           2.722494   -2.473866    2.222012 H         1 <1>         0.023516 
     26 H           1.083058   -3.185254    2.310890 H         1 <1>         0.023516 
     27 H           1.912853   -3.042263    0.737698 H         1 <1>         0.023516 
     28 H           0.421971    0.557745    2.949667 H         1 <1>         0.023516 
     29 H           0.079286   -1.095990    3.473064 H         1 <1>         0.023516 
     30 H           1.740875   -0.452066    3.552641 H         1 <1>         0.023516 
     31 H          -2.945045    1.904946   -0.792627 H         1 <1>         0.027122 
     32 H          -2.183249    1.847176   -2.401413 H         1 <1>         0.027122 
     33 H          -2.153702   -0.657888   -2.282222 H         1 <1>         0.031008 
     34 H          -3.736112   -0.215197   -1.572371 H         1 <1>         0.031008 
     35 H          -0.301848    0.296025   -3.318811 H         1 <1>         0.023250 
     36 H           0.816365   -0.575005   -2.241262 H         1 <1>         0.023250 
     37 H           1.425521    0.648535   -3.362147 H         1 <1>         0.023250 
     38 H          -3.528618   -2.128565    0.140128 H         1 <1>         0.053449 
     39 H          -2.221540   -1.936271    1.466039 H         1 <1>         0.053449 
@<TRIPOS>BOND
     1    1    2 1    
     2    1    3 1    
     3    1    4 1    
     4    1   16 1    
     5    2    3 1    
     6    2    8 1    
     7    2    9 1    
     8    3    6 1    
     9    3   17 1    
    10    4    5 1    
    11    4   11 1    
    12    4   18 1    
    13    5    7 1    
    14    5   12 1    
    15    5   19 1    
    16    6   10 1    
    17    6   20 1    
    18    6   21 1    
    19    7   10 1    
    20    7   14 1    
    21    7   22 1    
    22    8   25 1    
    23    8   26 1    
    24    8   27 1    
    25    9   28 1    
    26    9   29 1    
    27    9   30 1    
    28   10   23 1    
    29   10   24 1    
    30   11   13 1    
    31   11   15 2    
    32   12   13 1    
    33   12   31 1    
    34   12   32 1    
    35   13   33 1    
    36   13   34 1    
    37   14   35 1    
    38   14   36 1    
    39   14   37 1    
    40   15   38 1    
    41   15   39 1    
@<TRIPOS>SUBSTRUCTURE
     1 ****        1 TEMP              0 ****  ****    0 ROOT 
@<TRIPOS>NORMAL
@<TRIPOS>FF_PBC
FORCE_FIELD_SETUP_FEATURE Force Field Setup information
v1.0  0 0.000000 0.000000 0.000000 0.000000 0.000000 0.000000 NONE 0 0 0 0 1 0 0 0 0 0 0 0 0
