@<TRIPOS>MOLECULE
MOL001417
   23    22     1     1     0
SMALL
GASTEIGER


@<TRIPOS>ATOM
      1 C          -4.798472    0.659251   -0.000113 C.2       1 <1>         0.142804 
      2 C          -3.556084   -0.134762   -0.000012 C.2       1 <1>        -0.026368 
      3 C          -2.332894    0.410967    0.000096 C.2       1 <1>        -0.080990 
      4 C          -1.086574   -0.442237    0.000203 C.3       1 <1>        -0.034373 
      5 C           0.207930    0.415058   -0.000079 C.3       1 <1>        -0.049614 
      6 C           1.479433   -0.477236    0.000071 C.3       1 <1>        -0.053028 
      7 C           2.773335    0.381842   -0.000158 C.3       1 <1>        -0.055902 
      8 C           4.042681   -0.509406    0.000048 C.3       1 <1>        -0.065276 
      9 O          -5.880211    0.094749   -0.000176 O.2       1 <1>        -0.296330 
     10 H          -4.775015    1.748634   -0.000133 H         1 <1>         0.107505 
     11 H          -3.659007   -1.220421   -0.000022 H         1 <1>         0.064624 
     12 H          -2.234334    1.497427    0.000116 H         1 <1>         0.057298 
     13 H          -1.099896   -1.086163    0.894409 H         1 <1>         0.030742 
     14 H          -1.099999   -1.086603   -0.893685 H         1 <1>         0.030742 
     15 H           0.214040    1.060339   -0.894247 H         1 <1>         0.026822 
     16 H           0.214139    1.060769    0.893782 H         1 <1>         0.026822 
     17 H           1.471997   -1.123079    0.893574 H         1 <1>         0.026529 
     18 H           1.471937   -1.123479   -0.893137 H         1 <1>         0.026529 
     19 H           2.787497    1.028002   -0.893791 H         1 <1>         0.026265 
     20 H           2.787527    1.028443    0.893160 H         1 <1>         0.026265 
     21 H           4.947215    0.119315   -0.000124 H         1 <1>         0.022978 
     22 H           4.062241   -1.150431    0.895226 H         1 <1>         0.022978 
     23 H           4.062217   -1.150880   -0.894808 H         1 <1>         0.022978 
@<TRIPOS>BOND
     1    1    2 1    
     2    1    9 2    
     3    1   10 1    
     4    2    3 2    
     5    2   11 1    
     6    3    4 1    
     7    3   12 1    
     8    4    5 1    
     9    4   13 1    
    10    4   14 1    
    11    5    6 1    
    12    5   15 1    
    13    5   16 1    
    14    6    7 1    
    15    6   17 1    
    16    6   18 1    
    17    7    8 1    
    18    7   19 1    
    19    7   20 1    
    20    8   21 1    
    21    8   22 1    
    22    8   23 1    
@<TRIPOS>SUBSTRUCTURE
     1 ****        1 TEMP              0 ****  ****    0 ROOT 
@<TRIPOS>NORMAL
@<TRIPOS>FF_PBC
FORCE_FIELD_SETUP_FEATURE Force Field Setup information
v1.0  0 0.000000 0.000000 0.000000 0.000000 0.000000 0.000000 NONE 0 0 0 0 1 0 0 0 0 0 0 0 0
