@<TRIPOS>MOLECULE
MOL007260
   56    59     1     1     0
SMALL
GASTEIGER


@<TRIPOS>ATOM
      1 O           0.120467   -1.892239    0.284638 O.3       1 <1>        -0.340164 
      2 O          -0.002966   -0.226681    1.882584 O.3       1 <1>        -0.306082 
      3 O           3.911042   -3.151089    1.637191 O.3       1 <1>        -0.386401 
      4 O           2.862740   -4.164678   -0.833584 O.3       1 <1>        -0.386488 
      5 O           2.833019   -0.586692    2.462425 O.3       1 <1>        -0.384091 
      6 O          -1.189750   -2.805779   -1.947455 O.3       1 <1>        -0.392366 
      7 O          -2.062453    1.805983   -0.218373 O.3       1 <1>        -0.305121 
      8 O          -2.451612   -1.508265    2.074759 O.2       1 <1>        -0.284261 
      9 O          -5.018893   -1.872945    1.286912 O.3       1 <1>        -0.358954 
     10 O           2.236438    4.044453   -2.179700 O.3       1 <1>        -0.345330 
     11 O          -6.704730    1.499573   -1.852579 O.3       1 <1>        -0.359667 
     12 O           3.901841    4.439515    0.081875 O.3       1 <1>        -0.357268 
     13 C           2.887217   -2.462415    0.890845 C.3       1 <1>         0.114074 
     14 C           2.005932   -3.455335    0.083550 C.3       1 <1>         0.111896 
     15 C           2.009938   -1.578642    1.816904 C.3       1 <1>         0.134513 
     16 C           0.887147   -2.668942   -0.656283 C.3       1 <1>         0.113017 
     17 C           0.896644   -0.900824    0.982229 C.3       1 <1>         0.193914 
     18 C          -0.134132   -3.594149   -1.369596 C.3       1 <1>         0.073015 
     19 C          -1.087918    0.231658    1.242565 C.2       1 <1>         0.157591 
     20 C          -1.017727    1.350068    0.498183 C.2       1 <1>         0.124041 
     21 C          -2.345815   -0.524464    1.358457 C.2       1 <1>         0.223405 
     22 C          -3.525981   -0.055210    0.552070 C.ar      1 <1>         0.084562 
     23 C          -3.301653    1.163707   -0.247567 C.ar      1 <1>         0.099001 
     24 C           0.254471    2.166527    0.418730 C.ar      1 <1>         0.010746 
     25 C          -4.785047   -0.717419    0.536335 C.ar      1 <1>         0.088401 
     26 C          -4.337688    1.678603   -1.037941 C.ar      1 <1>        -0.000529 
     27 C           0.632343    2.730191   -0.816223 C.ar      1 <1>        -0.019439 
     28 C           1.109917    2.389688    1.610805 C.ar      1 <1>        -0.049435 
     29 C          -5.870692   -0.160173   -0.302927 C.ar      1 <1>        -0.001302 
     30 C          -5.660533    1.002190   -1.071055 C.ar      1 <1>         0.077519 
     31 C           1.884854    3.510134   -0.938899 C.ar      1 <1>         0.106041 
     32 C           2.305560    3.126893    1.503754 C.ar      1 <1>        -0.028761 
     33 C           2.716620    3.706546    0.199585 C.ar      1 <1>         0.102473 
     34 C           3.297222    3.339753   -2.844627 C.3       1 <1>         0.043136 
     35 H           3.413175   -1.805336    0.179524 H         1 <1>         0.064758 
     36 H           1.544554   -4.156591    0.799969 H         1 <1>         0.064673 
     37 H           1.529156   -2.227058    2.569399 H         1 <1>         0.067108 
     38 H           1.333876   -2.012981   -1.422651 H         1 <1>         0.064668 
     39 H           1.362564   -0.193237    0.276166 H         1 <1>         0.094163 
     40 H          -0.557325   -4.316138   -0.650960 H         1 <1>         0.058370 
     41 H           0.338602   -4.152933   -2.191405 H         1 <1>         0.058370 
     42 H           3.567547   -3.751578    2.289937 H         1 <1>         0.210005 
     43 H           2.439620   -4.880253   -1.295857 H         1 <1>         0.210004 
     44 H           2.335191   -0.042431    3.064854 H         1 <1>         0.210111 
     45 H          -1.638596   -2.283116   -1.288318 H         1 <1>         0.209508 
     46 H          -4.161440    2.574622   -1.622251 H         1 <1>         0.066947 
     47 H           0.011794    2.590927   -1.694572 H         1 <1>         0.065083 
     48 H           0.814353    1.993788    2.576173 H         1 <1>         0.062506 
     49 H          -6.835820   -0.653211   -0.325723 H         1 <1>         0.066923 
     50 H           2.923263    3.273433    2.383590 H         1 <1>         0.064422 
     51 H          -4.270204   -2.156883    1.804123 H         1 <1>         0.217342 
     52 H          -6.475805    2.275962   -2.350952 H         1 <1>         0.217316 
     53 H           4.349673    4.578666    0.908184 H         1 <1>         0.217422 
     54 H           3.007770    2.293748   -3.031009 H         1 <1>         0.052871 
     55 H           4.226689    3.360557   -2.255148 H         1 <1>         0.052871 
     56 H           3.483844    3.831999   -3.810356 H         1 <1>         0.052871 
@<TRIPOS>BOND
     1    1   16 1    
     2   17    1 1    
     3    2   17 1    
     4   19    2 1    
     5   13    3 1    
     6    3   42 1    
     7   14    4 1    
     8    4   43 1    
     9   15    5 1    
    10    5   44 1    
    11   18    6 1    
    12    6   45 1    
    13   20    7 1    
    14    7   23 1    
    15   21    8 2    
    16   25    9 1    
    17    9   51 1    
    18   31   10 1    
    19   10   34 1    
    20   30   11 1    
    21   11   52 1    
    22   33   12 1    
    23   12   53 1    
    24   13   14 1    
    25   15   13 1    
    26   13   35 1    
    27   16   14 1    
    28   14   36 1    
    29   17   15 1    
    30   15   37 1    
    31   16   18 1    
    32   16   38 1    
    33   17   39 1    
    34   18   40 1    
    35   18   41 1    
    36   20   19 2    
    37   19   21 1    
    38   24   20 1    
    39   21   22 1    
    40   23   22 1    
    41   22   25 2    
    42   23   26 2    
    43   27   24 2    
    44   24   28 1    
    45   25   29 1    
    46   26   30 1    
    47   26   46 1    
    48   31   27 1    
    49   27   47 1    
    50   28   32 2    
    51   28   48 1    
    52   30   29 2    
    53   29   49 1    
    54   31   33 2    
    55   32   33 1    
    56   32   50 1    
    57   34   54 1    
    58   34   55 1    
    59   34   56 1    
@<TRIPOS>SUBSTRUCTURE
     1 ****        3 TEMP              0 ****  ****    0 ROOT 
@<TRIPOS>NORMAL
@<TRIPOS>FF_PBC
FORCE_FIELD_SETUP_FEATURE Force Field Setup information
v1.0  0 0.000000 0.000000 0.000000 0.000000 0.000000 0.000000 NONE 0 0 0 0 1 0 0 0 0 0 0 0 0
