@<TRIPOS>MOLECULE
MOL004034
   32    34     1     1     0
SMALL
GASTEIGER


@<TRIPOS>ATOM
      1 O           1.902286    0.741543    0.269982 O.3       1 <1>        -0.307439 
      2 O          -2.969727    1.842773    0.140609 O.2       1 <1>        -0.209446 
      3 O          -1.588591   -2.682966   -0.487929 O.3       1 <1>        -0.346214 
      4 O          -0.080254    2.728146    0.484551 O.3       1 <1>        -0.338087 
      5 O           1.125627   -3.181305   -0.439086 O.2       1 <1>        -0.287025 
      6 O           4.473026    1.482117   -0.646027 O.3       1 <1>        -0.388422 
      7 C           0.167912   -1.013016   -0.121116 C.ar      1 <1>         0.085765 
      8 C          -2.197237   -0.294409   -0.136598 C.ar      1 <1>         0.120498 
      9 C           0.553131    0.397900    0.132897 C.ar      1 <1>         0.135233 
     10 C          -1.192406   -1.370520   -0.250248 C.ar      1 <1>         0.105669 
     11 C          -1.863072    1.017376    0.086027 C.ar      1 <1>         0.397416 
     12 C          -0.438197    1.400745    0.236892 C.ar      1 <1>         0.213005 
     13 C           1.307631   -1.993893   -0.230045 C.2       1 <1>         0.193370 
     14 C          -3.660265   -0.321361   -0.225377 C.ar      1 <1>         0.053325 
     15 C           2.894993   -0.160656    0.157384 C.2       1 <1>         0.089453 
     16 C           2.665512   -1.460034   -0.077599 C.2       1 <1>         0.014468 
     17 C          -4.037815    0.990523   -0.055014 C.ar      1 <1>         0.322844 
     18 C           4.272678    0.436397    0.320666 C.3       1 <1>         0.091045 
     19 C          -1.765136   -3.490336    0.688527 C.3       1 <1>         0.043084 
     20 C          -0.333706    3.657171   -0.582700 C.3       1 <1>         0.043450 
     21 H          -4.297604   -1.184675   -0.388793 H         1 <1>         0.071424 
     22 H           3.495971   -2.161377   -0.162373 H         1 <1>         0.067943 
     23 H          -5.071292    1.325310   -0.071137 H         1 <1>         0.176013 
     24 H           5.064103   -0.312488    0.165607 H         1 <1>         0.062730 
     25 H           4.371433    0.831255    1.345308 H         1 <1>         0.062730 
     26 H          -2.571229   -3.083343    1.318187 H         1 <1>         0.052870 
     27 H          -0.837829   -3.552096    1.279929 H         1 <1>         0.052870 
     28 H          -2.044813   -4.506681    0.370975 H         1 <1>         0.052870 
     29 H           0.038230    4.641997   -0.264020 H         1 <1>         0.052875 
     30 H          -1.408075    3.745070   -0.802317 H         1 <1>         0.052875 
     31 H           0.203721    3.356771   -1.495253 H         1 <1>         0.052875 
     32 H           3.821896    2.173260   -0.562410 H         1 <1>         0.209932 
@<TRIPOS>BOND
     1    1    9 1    
     2   15    1 1    
     3   11    2 1    
     4    2   17 1    
     5   10    3 1    
     6    3   19 1    
     7   12    4 1    
     8    4   20 1    
     9   13    5 2    
    10   18    6 1    
    11    6   32 1    
    12    9    7 1    
    13    7   10 2    
    14   13    7 1    
    15   10    8 1    
    16   11    8 2    
    17    8   14 1    
    18    9   12 2    
    19   12   11 1    
    20   16   13 1    
    21   14   17 2    
    22   14   21 1    
    23   15   16 2    
    24   15   18 1    
    25   16   22 1    
    26   17   23 1    
    27   18   24 1    
    28   18   25 1    
    29   19   26 1    
    30   19   27 1    
    31   19   28 1    
    32   20   29 1    
    33   20   30 1    
    34   20   31 1    
@<TRIPOS>SUBSTRUCTURE
     1 ****        1 TEMP              0 ****  ****    0 ROOT 
@<TRIPOS>NORMAL
@<TRIPOS>FF_PBC
FORCE_FIELD_SETUP_FEATURE Force Field Setup information
v1.0  0 0.000000 0.000000 0.000000 0.000000 0.000000 0.000000 NONE 0 0 0 0 1 0 0 0 0 0 0 0 0
