@<TRIPOS>MOLECULE
MOL001706
   30    29     1     1     0
SMALL
GASTEIGER


@<TRIPOS>ATOM
      1 C          -3.286187    2.377265   -0.004428 C.3       1 <1>        -0.032707 
      2 C          -2.624319    0.982575    0.160361 C.3       1 <1>         0.078561 
      3 C          -1.113655    1.129427    0.101983 C.2       1 <1>        -0.057218 
      4 C          -0.237293    0.304004    0.692203 C.2       1 <1>        -0.082276 
      5 C           1.261085    0.491570    0.610350 C.3       1 <1>        -0.002338 
      6 C           2.011675   -0.824489    0.253369 C.3       1 <1>         0.084499 
      7 C           3.508792   -0.570292    0.260777 C.2       1 <1>        -0.059940 
      8 C           4.434883   -1.530174    0.130208 C.2       1 <1>        -0.099956 
      9 O          -3.093642    0.497161    1.431306 O.3       1 <1>        -0.385094 
     10 O           1.663964   -1.778400    1.273572 O.3       1 <1>        -0.384523 
     11 C           1.564724   -1.337295   -1.143464 C.3       1 <1>        -0.032161 
     12 C          -3.080633    0.034457   -0.979200 C.3       1 <1>        -0.032707 
     13 H          -4.380353    2.283806    0.068036 H         1 <1>         0.026028 
     14 H          -3.037123    2.824151   -0.979260 H         1 <1>         0.026028 
     15 H          -2.940004    3.051279    0.794436 H         1 <1>         0.026028 
     16 H          -0.721482    1.968465   -0.473829 H         1 <1>         0.059701 
     17 H          -0.582433   -0.551477    1.268615 H         1 <1>         0.057085 
     18 H           1.597190    0.825471    1.604342 H         1 <1>         0.033817 
     19 H           1.529925    1.271029   -0.119733 H         1 <1>         0.033817 
     20 H           3.870562    0.452161    0.378682 H         1 <1>         0.059450 
     21 H           5.496019   -1.278799    0.146499 H         1 <1>         0.053262 
     22 H           4.175457   -2.579552    0.005575 H         1 <1>         0.053262 
     23 H          -2.857415   -0.403765    1.618574 H         1 <1>         0.210567 
     24 H           2.049138   -2.638110    1.143642 H         1 <1>         0.210592 
     25 H           1.800803   -0.592223   -1.918003 H         1 <1>         0.026047 
     26 H           2.079887   -2.275708   -1.396397 H         1 <1>         0.026047 
     27 H           0.481816   -1.528849   -1.156488 H         1 <1>         0.026047 
     28 H          -4.172730   -0.097263   -0.954538 H         1 <1>         0.026028 
     29 H          -2.605364   -0.950538   -0.858611 H         1 <1>         0.026028 
     30 H          -2.793285    0.444312   -1.959081 H         1 <1>         0.026028 
@<TRIPOS>BOND
     1    1    2 1    
     2    1   13 1    
     3    1   14 1    
     4    1   15 1    
     5    2    3 1    
     6    2    9 1    
     7    2   12 1    
     8    3    4 2    
     9    3   16 1    
    10    4    5 1    
    11    4   17 1    
    12    5    6 1    
    13    5   18 1    
    14    5   19 1    
    15    6    7 1    
    16    6   10 1    
    17    6   11 1    
    18    7    8 2    
    19    7   20 1    
    20    8   21 1    
    21    8   22 1    
    22    9   23 1    
    23   10   24 1    
    24   11   25 1    
    25   11   26 1    
    26   11   27 1    
    27   12   28 1    
    28   12   29 1    
    29   12   30 1    
@<TRIPOS>SUBSTRUCTURE
     1 ****        1 TEMP              0 ****  ****    0 ROOT 
@<TRIPOS>NORMAL
@<TRIPOS>FF_PBC
FORCE_FIELD_SETUP_FEATURE Force Field Setup information
v1.0  0 0.000000 0.000000 0.000000 0.000000 0.000000 0.000000 NONE 0 0 0 0 1 0 0 0 0 0 0 0 0
