@<TRIPOS>MOLECULE
MOL005342
  127   132     1     1     0
SMALL
GASTEIGER


@<TRIPOS>ATOM
      1 O           0.784493    3.834690    0.453547 O.3       1 <1>        -0.391475 
      2 O          -2.649199   -2.285852    0.757932 O.3       1 <1>        -0.344881 
      3 O           3.320358    4.685774    0.398139 O.3       1 <1>        -0.388552 
      4 O          -2.996301   -3.895456   -0.849369 O.3       1 <1>        -0.340513 
      5 O          -4.238591   -1.496509   -2.538585 O.3       1 <1>        -0.337759 
      6 O          -1.454289   -0.745226   -3.177493 O.3       1 <1>        -0.386391 
      7 O           0.214982   -3.034166   -2.549475 O.3       1 <1>        -0.386488 
      8 O          -3.414631   -2.483426   -4.521226 O.3       1 <1>        -0.340519 
      9 O           0.149370   -5.658106   -1.702012 O.3       1 <1>        -0.392366 
     10 O          -6.051418   -3.817008   -4.813160 O.3       1 <1>        -0.384104 
     11 O          -6.100858   -0.207419   -4.081667 O.3       1 <1>        -0.386401 
     12 O          -5.157930   -0.155985   -6.818478 O.3       1 <1>        -0.386488 
     13 O          -2.508386    0.046651   -7.074392 O.3       1 <1>        -0.392366 
     14 C           0.705128    0.091959    2.580182 C.3       1 <1>        -0.022908 
     15 C           2.042827    0.953828    2.671429 C.3       1 <1>        -0.020884 
     16 C          -0.494024    1.097280    2.801120 C.3       1 <1>        -0.027109 
     17 C          -1.943886    0.495856    3.065658 C.3       1 <1>        -0.025166 
     18 C           2.078817    2.026972    1.537281 C.3       1 <1>        -0.003645 
     19 C          -1.872181   -0.897316    3.825028 C.3       1 <1>        -0.027835 
     20 C           0.718930   -1.063601    3.653034 C.3       1 <1>        -0.046558 
     21 C          -0.466339    2.258107    1.743479 C.3       1 <1>        -0.022712 
     22 C           3.530856    2.586470    1.583877 C.3       1 <1>        -0.006683 
     23 C           0.885927    3.022140    1.634462 C.3       1 <1>         0.059199 
     24 C           3.365142    0.199223    2.341869 C.3       1 <1>        -0.046422 
     25 C          -0.517783   -1.048910    4.588826 C.3       1 <1>        -0.048618 
     26 C          -2.568297   -2.224482    3.257748 C.3       1 <1>        -0.005230 
     27 C           4.372877    1.308878    1.907946 C.3       1 <1>        -0.046740 
     28 C          -2.807948    0.416944    1.764688 C.3       1 <1>        -0.044719 
     29 C           0.510404   -0.637582    1.202233 C.3       1 <1>        -0.058782 
     30 C           2.264276    1.617773    4.093720 C.3       1 <1>        -0.058710 
     31 C          -2.703888    1.532994    3.991102 C.3       1 <1>        -0.059018 
     32 C          -3.420186   -2.005096    1.954707 C.3       1 <1>         0.067174 
     33 C          -3.994061   -0.572855    1.884453 C.3       1 <1>        -0.025470 
     34 C           4.071573    3.454795    0.388596 C.3       1 <1>         0.066753 
     35 C          -3.533272   -2.810269    4.359779 C.3       1 <1>        -0.057181 
     36 C          -1.600502   -3.421110    2.964607 C.3       1 <1>        -0.057181 
     37 C           5.590048    3.758321    0.641964 C.3       1 <1>        -0.020552 
     38 C           3.858287    2.776445   -1.000590 C.3       1 <1>        -0.035798 
     39 C           6.216188    4.932184   -0.165754 C.3       1 <1>        -0.031929 
     40 C          -3.408499   -2.577194   -0.443769 C.3       1 <1>         0.188595 
     41 C          -3.158391   -1.539765   -1.570993 C.3       1 <1>         0.140625 
     42 C           7.715797    4.937985    0.034623 C.2       1 <1>        -0.085195 
     43 C          -1.682121   -1.616093   -2.053995 C.3       1 <1>         0.114429 
     44 C          -1.585174   -3.983287   -1.140386 C.3       1 <1>         0.113005 
     45 C          -1.211187   -3.066637   -2.336731 C.3       1 <1>         0.111906 
     46 C           8.608061    4.319688   -0.757461 C.2       1 <1>        -0.079616 
     47 C          -1.257184   -5.465848   -1.454004 C.3       1 <1>         0.073015 
     48 C          -4.362122   -2.607222   -3.445925 C.3       1 <1>         0.188544 
     49 C          10.094626    4.422845   -0.489974 C.3       1 <1>        -0.044050 
     50 C           8.226735    3.485301   -1.962630 C.3       1 <1>        -0.044050 
     51 C          -5.813417   -2.643620   -4.004742 C.3       1 <1>         0.134126 
     52 C          -6.083224   -1.400846   -4.888104 C.3       1 <1>         0.114061 
     53 C          -3.603309   -1.282834   -5.297622 C.3       1 <1>         0.113005 
     54 C          -4.991100   -1.323656   -5.986037 C.3       1 <1>         0.111896 
     55 C          -2.476515   -1.202781   -6.359938 C.3       1 <1>         0.073015 
     56 H          -0.250018    1.604666    3.739952 H         1 <1>         0.031235 
     57 H           2.001374    1.533568    0.563827 H         1 <1>         0.033467 
     58 H          -2.510384   -0.712214    4.701328 H         1 <1>         0.031210 
     59 H           0.778246   -2.055158    3.190594 H         1 <1>         0.027087 
     60 H           1.621907   -1.065434    4.276955 H         1 <1>         0.027087 
     61 H          -1.224114    3.022999    1.964396 H         1 <1>         0.029314 
     62 H          -0.704162    1.886958    0.739287 H         1 <1>         0.029314 
     63 H           3.558262    3.265924    2.451318 H         1 <1>         0.033201 
     64 H           0.991443    3.706322    2.491291 H         1 <1>         0.059620 
     65 H           3.742940   -0.403882    3.183080 H         1 <1>         0.027088 
     66 H           3.240098   -0.478011    1.487054 H         1 <1>         0.027088 
     67 H          -0.520042   -1.944341    5.231392 H         1 <1>         0.026846 
     68 H          -0.378191   -0.195468    5.275388 H         1 <1>         0.026846 
     69 H           5.103199    1.525471    2.705519 H         1 <1>         0.026910 
     70 H           4.948096    0.939066    1.046260 H         1 <1>         0.026910 
     71 H          -3.213895    1.407559    1.502247 H         1 <1>         0.027149 
     72 H          -2.205600    0.113360    0.905073 H         1 <1>         0.027149 
     73 H           0.447491   -0.000749    0.316051 H         1 <1>         0.023533 
     74 H          -0.427541   -1.191183    1.242049 H         1 <1>         0.023533 
     75 H           1.279939   -1.392105    0.994046 H         1 <1>         0.023533 
     76 H           3.322092    1.825850    4.305483 H         1 <1>         0.023534 
     77 H           1.930523    0.996092    4.930760 H         1 <1>         0.023534 
     78 H           1.752365    2.574995    4.231598 H         1 <1>         0.023534 
     79 H          -2.211931    1.637147    4.971356 H         1 <1>         0.023525 
     80 H          -3.740474    1.227556    4.192937 H         1 <1>         0.023525 
     81 H          -2.763015    2.540863    3.560036 H         1 <1>         0.023525 
     82 H          -4.254219   -2.727208    1.982330 H         1 <1>         0.060224 
     83 H          -4.641565   -0.478918    0.997923 H         1 <1>         0.029047 
     84 H          -4.620539   -0.369808    2.764161 H         1 <1>         0.029047 
     85 H          -2.172855   -4.291385    2.606353 H         1 <1>         0.023587 
     86 H          -1.052689   -3.747164    3.859391 H         1 <1>         0.023587 
     87 H          -0.873375   -3.209295    2.177547 H         1 <1>         0.023587 
     88 H          -2.988503   -2.980722    5.302056 H         1 <1>         0.023587 
     89 H          -4.367093   -2.120922    4.565982 H         1 <1>         0.023587 
     90 H          -3.980605   -3.774734    4.071400 H         1 <1>         0.023587 
     91 H           1.551271    4.385552    0.334500 H         1 <1>         0.209789 
     92 H           6.175568    2.853710    0.420482 H         1 <1>         0.029579 
     93 H           5.745411    4.000842    1.705903 H         1 <1>         0.029579 
     94 H           2.788697    2.716568   -1.246056 H         1 <1>         0.025730 
     95 H           4.326985    3.359103   -1.804229 H         1 <1>         0.025730 
     96 H           4.281225    1.763451   -1.035155 H         1 <1>         0.025730 
     97 H           3.582831    5.291947   -0.289383 H         1 <1>         0.210159 
     98 H           5.823974    5.895163    0.200701 H         1 <1>         0.030829 
     99 H           5.980901    4.884071   -1.236888 H         1 <1>         0.030829 
    100 H          -4.499293   -2.629709   -0.292195 H         1 <1>         0.093760 
    101 H          -3.281639   -0.541865   -1.125724 H         1 <1>         0.067477 
    102 H           8.074818    5.494901    0.901718 H         1 <1>         0.057146 
    103 H          -1.054887   -1.263575   -1.218291 H         1 <1>         0.064768 
    104 H          -0.978868   -3.694268   -0.267475 H         1 <1>         0.064668 
    105 H          -1.694022   -3.440963   -3.248796 H         1 <1>         0.064673 
    106 H          -1.595255   -6.105182   -0.620410 H         1 <1>         0.058370 
    107 H          -1.810406   -5.772024   -2.355451 H         1 <1>         0.058370 
    108 H          -4.204024   -3.566147   -2.931446 H         1 <1>         0.093754 
    109 H          -0.544694   -0.763907   -3.461506 H         1 <1>         0.210005 
    110 H           0.573779   -3.893683   -2.755804 H         1 <1>         0.210004 
    111 H           8.939932    2.657749   -2.095182 H         1 <1>         0.027427 
    112 H           7.228331    3.033515   -1.882163 H         1 <1>         0.027427 
    113 H           8.260022    4.119654   -2.860769 H         1 <1>         0.027427 
    114 H          10.339757    5.106928    0.336504 H         1 <1>         0.027427 
    115 H          10.492789    3.428120   -0.239229 H         1 <1>         0.027427 
    116 H          10.601716    4.788861   -1.395498 H         1 <1>         0.027427 
    117 H          -6.523862   -2.622794   -3.159934 H         1 <1>         0.067095 
    118 H           0.686002   -5.508296   -0.927651 H         1 <1>         0.209508 
    119 H          -7.072425   -1.523939   -5.363348 H         1 <1>         0.064758 
    120 H          -3.527272   -0.379703   -4.669230 H         1 <1>         0.064668 
    121 H          -5.036186   -2.233391   -6.610543 H         1 <1>         0.064673 
    122 H          -5.945590   -4.635842   -4.338662 H         1 <1>         0.210110 
    123 H          -2.555377   -2.052787   -7.057304 H         1 <1>         0.058370 
    124 H          -1.500415   -1.271526   -5.855996 H         1 <1>         0.058370 
    125 H          -6.218702    0.581248   -4.602789 H         1 <1>         0.210005 
    126 H          -5.992515   -0.144152   -7.278387 H         1 <1>         0.210004 
    127 H          -3.354865    0.202454   -7.487021 H         1 <1>         0.209508 
@<TRIPOS>BOND
     1   23    1 1    
     2    1   91 1    
     3    2   32 1    
     4   40    2 1    
     5   34    3 1    
     6    3   97 1    
     7   40    4 1    
     8    4   44 1    
     9    5   41 1    
    10   48    5 1    
    11   43    6 1    
    12    6  109 1    
    13   45    7 1    
    14    7  110 1    
    15    8   48 1    
    16   53    8 1    
    17   47    9 1    
    18    9  118 1    
    19   51   10 1    
    20   10  122 1    
    21   52   11 1    
    22   11  125 1    
    23   54   12 1    
    24   12  126 1    
    25   55   13 1    
    26   13  127 1    
    27   14   15 1    
    28   16   14 1    
    29   20   14 1    
    30   14   29 1    
    31   15   18 1    
    32   15   24 1    
    33   15   30 1    
    34   17   16 1    
    35   16   21 1    
    36   16   56 1    
    37   19   17 1    
    38   28   17 1    
    39   17   31 1    
    40   18   22 1    
    41   23   18 1    
    42   18   57 1    
    43   19   25 1    
    44   26   19 1    
    45   19   58 1    
    46   25   20 1    
    47   20   59 1    
    48   20   60 1    
    49   21   23 1    
    50   21   61 1    
    51   21   62 1    
    52   22   27 1    
    53   22   34 1    
    54   22   63 1    
    55   23   64 1    
    56   24   27 1    
    57   24   65 1    
    58   24   66 1    
    59   25   67 1    
    60   25   68 1    
    61   32   26 1    
    62   26   35 1    
    63   26   36 1    
    64   27   69 1    
    65   27   70 1    
    66   33   28 1    
    67   28   71 1    
    68   28   72 1    
    69   29   73 1    
    70   29   74 1    
    71   29   75 1    
    72   30   76 1    
    73   30   77 1    
    74   30   78 1    
    75   31   79 1    
    76   31   80 1    
    77   31   81 1    
    78   32   33 1    
    79   32   82 1    
    80   33   83 1    
    81   33   84 1    
    82   34   37 1    
    83   34   38 1    
    84   35   88 1    
    85   35   89 1    
    86   35   90 1    
    87   36   85 1    
    88   36   86 1    
    89   36   87 1    
    90   37   39 1    
    91   37   92 1    
    92   37   93 1    
    93   38   94 1    
    94   38   95 1    
    95   38   96 1    
    96   39   42 1    
    97   39   98 1    
    98   39   99 1    
    99   41   40 1    
   100   40  100 1    
   101   41   43 1    
   102   41  101 1    
   103   42   46 2    
   104   42  102 1    
   105   43   45 1    
   106   43  103 1    
   107   45   44 1    
   108   44   47 1    
   109   44  104 1    
   110   45  105 1    
   111   46   49 1    
   112   46   50 1    
   113   47  106 1    
   114   47  107 1    
   115   48   51 1    
   116   48  108 1    
   117   49  114 1    
   118   49  115 1    
   119   49  116 1    
   120   50  111 1    
   121   50  112 1    
   122   50  113 1    
   123   52   51 1    
   124   51  117 1    
   125   54   52 1    
   126   52  119 1    
   127   53   54 1    
   128   53   55 1    
   129   53  120 1    
   130   54  121 1    
   131   55  123 1    
   132   55  124 1    
@<TRIPOS>SUBSTRUCTURE
     1 ****       14 TEMP              0 ****  ****    0 ROOT 
@<TRIPOS>NORMAL
@<TRIPOS>FF_PBC
FORCE_FIELD_SETUP_FEATURE Force Field Setup information
v1.0  0 0.000000 0.000000 0.000000 0.000000 0.000000 0.000000 NONE 0 0 0 0 1 0 0 0 0 0 0 0 0
