@<TRIPOS>MOLECULE
MOL004658
   40    42     1     1     0
SMALL
GASTEIGER


@<TRIPOS>ATOM
      1 C          -0.195181    0.557122   -0.886192 C.3       1 <1>         0.009876 
      2 C           0.418344   -1.450156    0.510010 C.3       1 <1>        -0.024945 
      3 C          -0.538173   -0.926805   -0.606254 C.3       1 <1>        -0.008849 
      4 C           1.431559   -0.245062    0.628637 C.3       1 <1>        -0.032127 
      5 C           1.339861    0.453087   -0.775339 C.3       1 <1>        -0.040313 
      6 C          -0.677361    1.644432    0.141492 C.3       1 <1>        -0.043646 
      7 C          -2.019575   -0.832802   -0.786605 C.2       1 <1>        -0.081015 
      8 C          -0.972257    0.754622   -2.226839 C.3       1 <1>         0.087498 
      9 C           1.166129    0.840546    1.721649 C.3       1 <1>        -0.040504 
     10 C          -0.254915    1.446208    1.617377 C.3       1 <1>        -0.049571 
     11 C          -2.247949    0.078237   -1.745287 C.2       1 <1>        -0.056208 
     12 C           1.254372   -2.681221    0.000149 C.3       1 <1>        -0.058998 
     13 C          -0.352422   -2.006188    1.746586 C.3       1 <1>        -0.058998 
     14 C          -1.155156    2.219749   -2.710945 C.3       1 <1>        -0.031897 
     15 C           1.485810    0.401447    3.179305 C.3       1 <1>        -0.062146 
     16 O          -0.349386   -0.001949   -3.280875 O.3       1 <1>        -0.384247 
     17 H          -0.291979   -1.559561   -1.477116 H         1 <1>         0.035461 
     18 H           2.466455   -0.593691    0.786335 H         1 <1>         0.030889 
     19 H           1.838760    1.432801   -0.835385 H         1 <1>         0.027469 
     20 H           1.754695   -0.170104   -1.583313 H         1 <1>         0.027469 
     21 H          -0.230114    2.599751   -0.178616 H         1 <1>         0.027186 
     22 H          -1.772088    1.774016    0.134897 H         1 <1>         0.027186 
     23 H          -2.765527   -1.426455   -0.259590 H         1 <1>         0.057298 
     24 H           1.881321    1.657887    1.514268 H         1 <1>         0.030096 
     25 H          -1.003468    0.828061    2.118959 H         1 <1>         0.026812 
     26 H          -0.280295    2.413302    2.149803 H         1 <1>         0.026812 
     27 H          -3.237796    0.318570   -2.131144 H         1 <1>         0.059736 
     28 H           1.939129   -3.034197    0.787208 H         1 <1>         0.023525 
     29 H           1.868941   -2.442628   -0.880741 H         1 <1>         0.023525 
     30 H           0.599540   -3.522276   -0.277589 H         1 <1>         0.023525 
     31 H           0.349505   -2.337423    2.525695 H         1 <1>         0.023525 
     32 H          -1.078653   -1.323909    2.189382 H         1 <1>         0.023525 
     33 H          -0.939259   -2.884875    1.437864 H         1 <1>         0.023525 
     34 H          -1.657024    2.227034   -3.690077 H         1 <1>         0.026056 
     35 H          -0.166305    2.689391   -2.821993 H         1 <1>         0.026056 
     36 H          -1.770221    2.823608   -2.029290 H         1 <1>         0.026056 
     37 H           1.501181    1.283732    3.839081 H         1 <1>         0.023250 
     38 H           2.473248   -0.082502    3.231355 H         1 <1>         0.023250 
     39 H           0.735214   -0.288650    3.582109 H         1 <1>         0.023250 
     40 H          -0.895432   -0.068037   -4.056683 H         1 <1>         0.210604 
@<TRIPOS>BOND
     1    1    3 1    
     2    1    5 1    
     3    1    6 1    
     4    1    8 1    
     5    3    2 1    
     6    2    4 1    
     7    2   12 1    
     8    2   13 1    
     9    3    7 1    
    10    3   17 1    
    11    4    5 1    
    12    4    9 1    
    13    4   18 1    
    14    5   19 1    
    15    5   20 1    
    16    6   10 1    
    17    6   21 1    
    18    6   22 1    
    19    7   11 2    
    20    7   23 1    
    21    8   11 1    
    22    8   14 1    
    23    8   16 1    
    24    9   10 1    
    25    9   15 1    
    26    9   24 1    
    27   10   25 1    
    28   10   26 1    
    29   11   27 1    
    30   12   28 1    
    31   12   29 1    
    32   12   30 1    
    33   13   31 1    
    34   13   32 1    
    35   13   33 1    
    36   14   34 1    
    37   14   35 1    
    38   14   36 1    
    39   15   37 1    
    40   15   38 1    
    41   15   39 1    
    42   16   40 1    
@<TRIPOS>SUBSTRUCTURE
     1 ****        1 TEMP              0 ****  ****    0 ROOT 
@<TRIPOS>NORMAL
@<TRIPOS>FF_PBC
FORCE_FIELD_SETUP_FEATURE Force Field Setup information
v1.0  0 0.000000 0.000000 0.000000 0.000000 0.000000 0.000000 NONE 0 0 0 0 1 0 0 0 0 0 0 0 0
