@<TRIPOS>MOLECULE
MOL004663
   22    22     1     1     0
SMALL
GASTEIGER


@<TRIPOS>ATOM
      1 C           0.313308    0.144086   -0.038090 C.ar      1 <1>        -0.040416 
      2 C           0.832862   -1.207678    0.322713 C.ar      1 <1>        -0.046980 
      3 C          -1.145229    0.357405   -0.098504 C.ar      1 <1>        -0.022419 
      4 C          -0.077925   -2.260395    0.601230 C.ar      1 <1>        -0.058553 
      5 C           1.290108    1.292667   -0.340961 C.3       1 <1>        -0.038903 
      6 C          -2.044762   -0.786426    0.204233 C.ar      1 <1>        -0.054343 
      7 C           2.338918   -1.502932    0.404011 C.3       1 <1>        -0.039442 
      8 C          -1.537997   -2.037412    0.538758 C.ar      1 <1>        -0.060938 
      9 C          -1.817046    1.673689   -0.450955 C.2       1 <1>        -0.061439 
     10 C          -1.094341    2.769962   -0.744857 C.2       1 <1>        -0.098127 
     11 H           0.283548   -3.248693    0.865184 H         1 <1>         0.062029 
     12 H           2.347492    1.014621   -0.261709 H         1 <1>         0.027779 
     13 H           1.127206    1.645673   -1.369713 H         1 <1>         0.027779 
     14 H           1.119558    2.111658    0.372927 H         1 <1>         0.027779 
     15 H          -3.121907   -0.659121    0.167878 H         1 <1>         0.062352 
     16 H           2.544255   -2.547768    0.680407 H         1 <1>         0.027762 
     17 H           2.804926   -1.318149   -0.575355 H         1 <1>         0.027762 
     18 H           2.801099   -0.858036    1.166220 H         1 <1>         0.027762 
     19 H          -2.215180   -2.857729    0.755961 H         1 <1>         0.061784 
     20 H          -2.915297    1.612200   -0.434290 H         1 <1>         0.061773 
     21 H          -1.954765    3.420712   -0.919017 H         1 <1>         0.053499 
     22 H          -0.718043    3.756966   -1.009397 H         1 <1>         0.053499 
@<TRIPOS>BOND
     1    1    2 1    
     2    1    3 2    
     3    1    5 1    
     4    2    4 2    
     5    2    7 1    
     6    3    6 1    
     7    3    9 1    
     8    4    8 1    
     9    4   11 1    
    10    5   12 1    
    11    5   13 1    
    12    5   14 1    
    13    6    8 2    
    14    6   15 1    
    15    7   16 1    
    16    7   17 1    
    17    7   18 1    
    18    8   19 1    
    19    9   10 2    
    20    9   20 1    
    21   10   21 1    
    22   10   22 1    
@<TRIPOS>SUBSTRUCTURE
     1 ****        1 TEMP              0 ****  ****    0 ROOT 
@<TRIPOS>NORMAL
@<TRIPOS>FF_PBC
FORCE_FIELD_SETUP_FEATURE Force Field Setup information
v1.0  0 0.000000 0.000000 0.000000 0.000000 0.000000 0.000000 NONE 0 0 0 0 1 0 0 0 0 0 0 0 0
