@<TRIPOS>MOLECULE
MOL002495
   44    44     1     1     0
SMALL
GASTEIGER


@<TRIPOS>ATOM
      1 C           0.267376   -3.562111    0.577187 C.ar      1 <1>        -0.044352 
      2 C           0.985116   -4.844852    0.794528 C.ar      1 <1>        -0.025965 
      3 C          -1.137700   -3.546781    0.729968 C.ar      1 <1>        -0.055970 
      4 C           1.104775   -2.327499    0.197900 C.3       1 <1>        -0.020607 
      5 C           0.314701   -6.022978    1.158802 C.ar      1 <1>         0.105659 
      6 C          -1.857541   -4.782492    1.113627 C.ar      1 <1>        -0.029141 
      7 C           0.299755   -1.013488    0.000701 C.3       1 <1>         0.013833 
      8 C          -1.164831   -5.997232    1.333269 C.ar      1 <1>         0.102451 
      9 O           1.083246   -7.184260    1.343786 O.3       1 <1>        -0.345341 
     10 C           1.174499    0.170972   -0.338696 C.2       1 <1>         0.156107 
     11 O          -1.864123   -7.150387    1.707320 O.3       1 <1>        -0.357269 
     12 C           0.510265   -8.410990    1.823414 C.3       1 <1>         0.043136 
     13 C           0.790150    1.550127    0.036900 C.2       1 <1>        -0.023134 
     14 O           2.219862   -0.018766   -0.939744 O.2       1 <1>        -0.292681 
     15 C           1.486274    2.646633   -0.299175 C.2       1 <1>        -0.080720 
     16 C           1.055171    4.053818    0.062446 C.3       1 <1>        -0.034364 
     17 C           0.403472    4.721637   -1.180401 C.3       1 <1>        -0.049614 
     18 C          -0.160530    6.138216   -0.873800 C.3       1 <1>        -0.053028 
     19 C          -0.902668    6.716616   -2.112376 C.3       1 <1>        -0.055902 
     20 C          -1.468041    8.136738   -1.840172 C.3       1 <1>        -0.065276 
     21 H           2.062177   -4.881271    0.670558 H         1 <1>         0.064684 
     22 H          -1.718461   -2.645188    0.576360 H         1 <1>         0.062110 
     23 H           1.842674   -2.168591    1.001568 H         1 <1>         0.031731 
     24 H           1.651707   -2.566813   -0.728226 H         1 <1>         0.031731 
     25 H          -2.934794   -4.741411    1.227207 H         1 <1>         0.064412 
     26 H          -0.401546   -1.146874   -0.837884 H         1 <1>         0.034806 
     27 H          -0.268470   -0.790322    0.917092 H         1 <1>         0.034806 
     28 H          -2.800507   -7.036774    1.822887 H         1 <1>         0.217422 
     29 H           1.318806   -9.149833    1.927362 H         1 <1>         0.052871 
     30 H          -0.226577   -8.810213    1.109609 H         1 <1>         0.052871 
     31 H           0.047252   -8.263570    2.811489 H         1 <1>         0.052871 
     32 H          -0.125732    1.671131    0.614406 H         1 <1>         0.064910 
     33 H           2.405053    2.537217   -0.879048 H         1 <1>         0.057307 
     34 H           1.926779    4.641308    0.398068 H         1 <1>         0.030742 
     35 H           0.328219    4.040160    0.890291 H         1 <1>         0.030742 
     36 H          -0.416875    4.073359   -1.533266 H         1 <1>         0.026822 
     37 H           1.153258    4.796810   -1.986362 H         1 <1>         0.026822 
     38 H           0.664826    6.811175   -0.586288 H         1 <1>         0.026529 
     39 H          -0.866324    6.075523   -0.028767 H         1 <1>         0.026529 
     40 H          -1.739740    6.049813   -2.381244 H         1 <1>         0.026265 
     41 H          -0.213667    6.767768   -2.972293 H         1 <1>         0.026265 
     42 H          -2.014888    8.501404   -2.726051 H         1 <1>         0.022978 
     43 H          -0.650592    8.842352   -1.618937 H         1 <1>         0.022978 
     44 H          -2.162009    8.119720   -0.983918 H         1 <1>         0.022978 
@<TRIPOS>BOND
     1    1    2 1    
     2    1    3 2    
     3    1    4 1    
     4    2    5 2    
     5    2   21 1    
     6    3    6 1    
     7    3   22 1    
     8    4    7 1    
     9    4   23 1    
    10    4   24 1    
    11    5    8 1    
    12    5    9 1    
    13    6    8 2    
    14    6   25 1    
    15    7   10 1    
    16    7   26 1    
    17    7   27 1    
    18    8   11 1    
    19    9   12 1    
    20   10   13 1    
    21   10   14 2    
    22   11   28 1    
    23   12   29 1    
    24   12   30 1    
    25   12   31 1    
    26   13   15 2    
    27   13   32 1    
    28   15   16 1    
    29   15   33 1    
    30   16   17 1    
    31   16   34 1    
    32   16   35 1    
    33   17   18 1    
    34   17   36 1    
    35   17   37 1    
    36   18   19 1    
    37   18   38 1    
    38   18   39 1    
    39   19   20 1    
    40   19   40 1    
    41   19   41 1    
    42   20   42 1    
    43   20   43 1    
    44   20   44 1    
@<TRIPOS>SUBSTRUCTURE
     1 ****        1 TEMP              0 ****  ****    0 ROOT 
@<TRIPOS>NORMAL
@<TRIPOS>FF_PBC
FORCE_FIELD_SETUP_FEATURE Force Field Setup information
v1.0  0 0.000000 0.000000 0.000000 0.000000 0.000000 0.000000 NONE 0 0 0 0 1 0 0 0 0 0 0 0 0
