@<TRIPOS>MOLECULE
MOL004912
   41    44     1     1     0
SMALL
GASTEIGER


@<TRIPOS>ATOM
      1 C          -2.261025   -1.485086   -0.475488 C.2       1 <1>         0.058335 
      2 C          -1.654791   -0.290996   -0.581525 C.2       1 <1>         0.055037 
      3 C          -2.410993    0.962924   -0.683858 C.2       1 <1>         0.198173 
      4 C          -3.915556    0.848816   -0.653978 C.ar      1 <1>         0.052905 
      5 C          -4.462572   -0.519582   -0.548082 C.ar      1 <1>         0.095569 
      6 O          -3.602917   -1.622289   -0.459585 O.3       1 <1>        -0.315352 
      7 C          -5.851401   -0.703461   -0.535720 C.ar      1 <1>        -0.000723 
      8 C          -6.759117    0.472797   -0.632612 C.ar      1 <1>         0.075081 
      9 C          -6.228737    1.766482   -0.716770 C.ar      1 <1>        -0.031105 
     10 C          -4.760226    1.966236   -0.722547 C.ar      1 <1>        -0.045981 
     11 O          -1.851026    2.044112   -0.785042 O.2       1 <1>        -0.286477 
     12 C           4.861002   -0.152737    0.682860 C.3       1 <1>         0.088837 
     13 C           4.102010   -0.386758    1.975366 C.2       1 <1>        -0.051917 
     14 C           2.765817   -0.416970    2.037795 C.2       1 <1>        -0.050884 
     15 C           1.969919   -0.226244    0.768185 C.ar      1 <1>         0.035079 
     16 C           2.716249    0.131868   -0.457828 C.ar      1 <1>         0.086895 
     17 O           4.077993    0.408192   -0.390901 O.3       1 <1>        -0.334125 
     18 C           2.054810    0.229385   -1.684849 C.ar      1 <1>        -0.030321 
     19 C           0.582194    0.059784   -1.749211 C.ar      1 <1>        -0.048913 
     20 C          -0.143363   -0.196433   -0.577179 C.ar      1 <1>         0.018165 
     21 C           0.568492   -0.375417    0.711226 C.ar      1 <1>         0.090019 
     22 C           5.966107    0.903396    0.957685 C.3       1 <1>        -0.031936 
     23 C           5.475336   -1.494769    0.199762 C.3       1 <1>        -0.031936 
     24 O          -0.153563   -0.706050    1.858869 O.3       1 <1>        -0.358551 
     25 O          -8.146484    0.312598   -0.639576 O.3       1 <1>        -0.359749 
     26 H          -1.654175   -2.386696   -0.399771 H         1 <1>         0.089750 
     27 H          -6.253057   -1.705442   -0.454527 H         1 <1>         0.066945 
     28 H          -6.895373    2.617714   -0.778264 H         1 <1>         0.064341 
     29 H          -4.342211    2.967663   -0.781681 H         1 <1>         0.062621 
     30 H           4.689991   -0.548071    2.883682 H         1 <1>         0.060053 
     31 H           2.249621   -0.591563    2.982433 H         1 <1>         0.062283 
     32 H           2.625975    0.455226   -2.580552 H         1 <1>         0.064367 
     33 H           0.072369    0.149805   -2.703027 H         1 <1>         0.062524 
     34 H           5.486958    1.839240    1.281944 H         1 <1>         0.026052 
     35 H           6.655711    0.566503    1.747156 H         1 <1>         0.026052 
     36 H           6.547590    1.115604    0.048849 H         1 <1>         0.026052 
     37 H           4.672299   -2.211495   -0.025660 H         1 <1>         0.026052 
     38 H           6.062559   -1.346979   -0.717969 H         1 <1>         0.026052 
     39 H           6.135767   -1.929022    0.967367 H         1 <1>         0.026052 
     40 H          -0.556317    0.070167    2.236884 H         1 <1>         0.217364 
     41 H          -8.435466   -0.592051   -0.603861 H         1 <1>         0.217315 
@<TRIPOS>BOND
     1    2    1 2    
     2    1    6 1    
     3    1   26 1    
     4    2    3 1    
     5   20    2 1    
     6    3    4 1    
     7    3   11 2    
     8    4    5 1    
     9    4   10 2    
    10    6    5 1    
    11    5    7 2    
    12    7    8 1    
    13    7   27 1    
    14    9    8 2    
    15    8   25 1    
    16   10    9 1    
    17    9   28 1    
    18   10   29 1    
    19   12   13 1    
    20   17   12 1    
    21   12   22 1    
    22   12   23 1    
    23   14   13 2    
    24   13   30 1    
    25   15   14 1    
    26   14   31 1    
    27   16   15 1    
    28   15   21 2    
    29   16   17 1    
    30   18   16 2    
    31   19   18 1    
    32   18   32 1    
    33   19   20 2    
    34   19   33 1    
    35   20   21 1    
    36   21   24 1    
    37   22   34 1    
    38   22   35 1    
    39   22   36 1    
    40   23   37 1    
    41   23   38 1    
    42   23   39 1    
    43   24   40 1    
    44   25   41 1    
@<TRIPOS>SUBSTRUCTURE
     1 ****       12 TEMP              0 ****  ****    0 ROOT 
@<TRIPOS>NORMAL
@<TRIPOS>FF_PBC
FORCE_FIELD_SETUP_FEATURE Force Field Setup information
v1.0  0 0.000000 0.000000 0.000000 0.000000 0.000000 0.000000 NONE 0 0 0 0 1 0 0 0 0 0 0 0 0
