@<TRIPOS>MOLECULE
MOL002249
   36    38     1     1     0
SMALL
GASTEIGER


@<TRIPOS>ATOM
      1 C          -4.473487   -1.593801   -0.559595 C.ar      1 <1>        -0.001737 
      2 C          -4.480567   -0.246770   -0.613053 C.ar      1 <1>         0.077480 
      3 C          -3.207179    0.500512   -0.452613 C.ar      1 <1>        -0.001449 
      4 C          -2.041713   -0.164441   -0.251109 C.ar      1 <1>         0.085208 
      5 C          -2.034585   -1.648523   -0.192447 C.ar      1 <1>         0.014968 
      6 C          -3.205302   -2.337071   -0.340937 C.ar      1 <1>         0.080714 
      7 O          -0.857820    0.561092   -0.107143 O.3       1 <1>        -0.333861 
      8 C           0.228049   -0.122260    0.540609 C.3       1 <1>         0.116400 
      9 C           0.497995   -1.470396   -0.169244 C.3       1 <1>         0.090049 
     10 C          -0.721585   -2.403869    0.036931 C.3       1 <1>         0.006117 
     11 C           1.478351    0.766442    0.476860 C.ar      1 <1>        -0.010895 
     12 C           2.349037    0.922733    1.669607 C.ar      1 <1>        -0.023505 
     13 C           3.446953    1.709106    1.625575 C.ar      1 <1>         0.105116 
     14 C           3.799966    2.422009    0.371563 C.ar      1 <1>         0.132435 
     15 C           3.008603    2.280985   -0.735834 C.ar      1 <1>         0.105116 
     16 C           1.799263    1.420230   -0.672624 C.ar      1 <1>        -0.023505 
     17 O          -3.192339   -3.733103   -0.282261 O.3       1 <1>        -0.359394 
     18 O           1.689206   -2.065076    0.379438 O.3       1 <1>        -0.388542 
     19 O          -5.688942    0.423159   -0.818958 O.3       1 <1>        -0.359667 
     20 O           4.243519    1.843239    2.764656 O.3       1 <1>        -0.357207 
     21 O           4.942845    3.229162    0.339492 O.3       1 <1>        -0.355395 
     22 O           3.355671    2.952918   -1.911914 O.3       1 <1>        -0.357207 
     23 H          -0.039559   -0.307123    1.593663 H         1 <1>         0.067764 
     24 H           0.630936   -1.262855   -1.245826 H         1 <1>         0.062592 
     25 H          -5.408397   -2.130453   -0.677491 H         1 <1>         0.066912 
     26 H          -3.197883    1.583865   -0.495299 H         1 <1>         0.066920 
     27 H          -0.646565   -3.267011   -0.643539 H         1 <1>         0.034073 
     28 H          -0.728656   -2.775153    1.073575 H         1 <1>         0.034073 
     29 H           2.109114    0.404204    2.591534 H         1 <1>         0.064762 
     30 H           1.168823    1.313865   -1.548678 H         1 <1>         0.064762 
     31 H          -4.048564   -4.129859   -0.396046 H         1 <1>         0.217327 
     32 H           1.915695   -2.892259   -0.035350 H         1 <1>         0.209916 
     33 H          -5.609347    1.370478   -0.807657 H         1 <1>         0.217316 
     34 H           4.979266    2.426820    2.606933 H         1 <1>         0.217423 
     35 H           5.072586    3.631765   -0.514255 H         1 <1>         0.217501 
     36 H           2.765413    2.783040   -2.637564 H         1 <1>         0.217423 
@<TRIPOS>BOND
     1    1    2 2    
     2    1    6 1    
     3    1   25 1    
     4    2    3 1    
     5    2   19 1    
     6    3    4 2    
     7    3   26 1    
     8    4    5 1    
     9    4    7 1    
    10    5    6 2    
    11    5   10 1    
    12    6   17 1    
    13    7    8 1    
    14    8    9 1    
    15    8   11 1    
    16    8   23 1    
    17    9   10 1    
    18    9   18 1    
    19    9   24 1    
    20   10   27 1    
    21   10   28 1    
    22   11   12 1    
    23   11   16 2    
    24   12   13 2    
    25   12   29 1    
    26   13   14 1    
    27   13   20 1    
    28   14   15 2    
    29   14   21 1    
    30   15   16 1    
    31   15   22 1    
    32   16   30 1    
    33   17   31 1    
    34   18   32 1    
    35   19   33 1    
    36   20   34 1    
    37   21   35 1    
    38   22   36 1    
@<TRIPOS>SUBSTRUCTURE
     1 ****        1 TEMP              0 ****  ****    0 ROOT 
@<TRIPOS>NORMAL
@<TRIPOS>FF_PBC
FORCE_FIELD_SETUP_FEATURE Force Field Setup information
v1.0  0 0.000000 0.000000 0.000000 0.000000 0.000000 0.000000 NONE 0 0 0 0 1 0 0 0 0 0 0 0 0
