@<TRIPOS>MOLECULE
MOL000445
   56    58     1     1     0
SMALL
GASTEIGER


@<TRIPOS>ATOM
      1 C           2.745257    0.368500    0.319116 C.2       1 <1>         0.058267 
      2 C           2.875395   -0.949300    0.103633 C.2       1 <1>         0.052653 
      3 C           1.689190   -1.798609   -0.098385 C.2       1 <1>         0.200590 
      4 C           0.330216   -1.154316   -0.000390 C.ar      1 <1>         0.083072 
      5 C           0.335610    0.298971    0.251338 C.ar      1 <1>         0.101538 
      6 O           1.550697    0.982979    0.372148 O.3       1 <1>        -0.314985 
      7 C          -0.890283    0.995050    0.375321 C.ar      1 <1>         0.017599 
      8 C          -2.168694    0.243074    0.255117 C.ar      1 <1>         0.084447 
      9 C          -2.165725   -1.159776    0.004943 C.ar      1 <1>         0.016854 
     10 C          -0.872935   -1.875536   -0.136356 C.ar      1 <1>         0.091813 
     11 O           1.775603   -2.989284   -0.348821 O.2       1 <1>        -0.286389 
     12 C          -0.876290    2.504945    0.652996 C.3       1 <1>        -0.004306 
     13 C           0.088574    3.269843   -0.220067 C.2       1 <1>        -0.080815 
     14 C           0.624137    4.462016    0.093658 C.2       1 <1>        -0.079306 
     15 C           1.634367    5.123529   -0.820001 C.3       1 <1>        -0.044040 
     16 C           0.284615    5.235819    1.350973 C.3       1 <1>        -0.044040 
     17 C          -3.474210   -1.962071   -0.106886 C.3       1 <1>        -0.004330 
     18 C          -4.586568   -1.243198   -0.835374 C.2       1 <1>        -0.080815 
     19 C          -5.888602   -1.342492   -0.516535 C.2       1 <1>        -0.079306 
     20 C          -6.945647   -0.552067   -1.255314 C.3       1 <1>        -0.044040 
     21 C          -6.404575   -2.236831    0.590422 C.3       1 <1>        -0.044040 
     22 C           4.251492   -1.584414    0.064614 C.ar      1 <1>        -0.012137 
     23 C           5.386735   -0.914748   -0.617821 C.ar      1 <1>        -0.051421 
     24 C           6.655338   -1.520020   -0.648040 C.ar      1 <1>        -0.031363 
     25 C           6.883627   -2.828303    0.009555 C.ar      1 <1>         0.072617 
     26 C           5.808166   -3.476303    0.653433 C.ar      1 <1>        -0.031363 
     27 C           4.471098   -2.837770    0.683522 C.ar      1 <1>        -0.051421 
     28 O           8.160944   -3.392415   -0.021314 O.3       1 <1>        -0.359832 
     29 O          -3.381494    0.910599    0.404377 O.3       1 <1>        -0.359103 
     30 O          -0.873957   -3.250259   -0.394173 O.3       1 <1>        -0.358673 
     31 H           3.616457    1.003885    0.473430 H         1 <1>         0.089749 
     32 H          -0.593686    2.585301    1.712067 H         1 <1>         0.035722 
     33 H          -1.871508    2.948213    0.513442 H         1 <1>         0.035722 
     34 H           0.356931    2.799898   -1.165849 H         1 <1>         0.057473 
     35 H           1.231017    6.077107   -1.192944 H         1 <1>         0.027427 
     36 H           1.904543    4.507704   -1.692478 H         1 <1>         0.027427 
     37 H           2.556910    5.332847   -0.257313 H         1 <1>         0.027427 
     38 H           0.209387    6.309420    1.119899 H         1 <1>         0.027427 
     39 H          -0.674209    4.938625    1.797452 H         1 <1>         0.027427 
     40 H           1.081393    5.099352    2.097276 H         1 <1>         0.027427 
     41 H          -3.749206   -2.204610    0.929618 H         1 <1>         0.035721 
     42 H          -3.298074   -2.903500   -0.648682 H         1 <1>         0.035721 
     43 H          -4.282899   -0.611898   -1.672704 H         1 <1>         0.057473 
     44 H          -7.656079   -1.245006   -1.730307 H         1 <1>         0.027427 
     45 H          -7.494038    0.077917   -0.538765 H         1 <1>         0.027427 
     46 H          -6.531507    0.101412   -2.036889 H         1 <1>         0.027427 
     47 H          -5.922387   -3.224490    0.556519 H         1 <1>         0.027427 
     48 H          -6.216775   -1.774069    1.570153 H         1 <1>         0.027427 
     49 H          -7.488416   -2.402055    0.494169 H         1 <1>         0.027427 
     50 H           5.242205    0.044427   -1.104284 H         1 <1>         0.062443 
     51 H           7.478648   -1.031089   -1.156947 H         1 <1>         0.064338 
     52 H           5.944186   -4.439772    1.133777 H         1 <1>         0.064338 
     53 H           3.662817   -3.346018    1.196487 H         1 <1>         0.062443 
     54 H           8.236734   -4.202508    0.469734 H         1 <1>         0.217313 
     55 H          -3.557787    1.471263   -0.342383 H         1 <1>         0.217339 
     56 H          -0.029232   -3.590932   -0.675604 H         1 <1>         0.217354 
@<TRIPOS>BOND
     1    1    2 2    
     2    1    6 1    
     3    1   31 1    
     4    2    3 1    
     5    2   22 1    
     6    3    4 1    
     7    3   11 2    
     8    4    5 1    
     9    4   10 2    
    10    5    6 1    
    11    5    7 2    
    12    7    8 1    
    13    7   12 1    
    14    8    9 2    
    15    8   29 1    
    16    9   10 1    
    17    9   17 1    
    18   10   30 1    
    19   12   13 1    
    20   12   32 1    
    21   12   33 1    
    22   13   14 2    
    23   13   34 1    
    24   14   15 1    
    25   14   16 1    
    26   15   35 1    
    27   15   36 1    
    28   15   37 1    
    29   16   38 1    
    30   16   39 1    
    31   16   40 1    
    32   17   18 1    
    33   17   41 1    
    34   17   42 1    
    35   18   19 2    
    36   18   43 1    
    37   19   20 1    
    38   19   21 1    
    39   20   44 1    
    40   20   45 1    
    41   20   46 1    
    42   21   47 1    
    43   21   48 1    
    44   21   49 1    
    45   22   23 1    
    46   22   27 2    
    47   23   24 2    
    48   23   50 1    
    49   24   25 1    
    50   24   51 1    
    51   25   26 2    
    52   25   28 1    
    53   26   27 1    
    54   26   52 1    
    55   27   53 1    
    56   28   54 1    
    57   29   55 1    
    58   30   56 1    
@<TRIPOS>SUBSTRUCTURE
     1 ****        1 TEMP              0 ****  ****    0 ROOT 
@<TRIPOS>NORMAL
@<TRIPOS>FF_PBC
FORCE_FIELD_SETUP_FEATURE Force Field Setup information
v1.0  0 0.000000 0.000000 0.000000 0.000000 0.000000 0.000000 NONE 0 0 0 0 1 0 0 0 0 0 0 0 0
