@<TRIPOS>MOLECULE
MOL003959
   64    70     1     1     0
SMALL
GASTEIGER


@<TRIPOS>ATOM
      1 O           2.358578    1.319977   -2.044849 O.3       1 <1>        -0.352476 
      2 O          -3.868757   -0.775009    1.203310 O.3       1 <1>        -0.369246 
      3 O           4.630949    1.036983   -0.171346 O.3       1 <1>        -0.304178 
      4 O          -4.112003   -0.906937   -1.618498 O.3       1 <1>        -0.314470 
      5 O           0.412071    2.941121    0.631125 O.2       1 <1>        -0.296707 
      6 O           4.593698    3.242994   -0.139766 O.2       1 <1>        -0.261946 
      7 O          -5.209938   -2.800932   -1.272690 O.2       1 <1>        -0.264881 
      8 O           5.818635   -3.275272    0.429271 O.2       1 <1>        -0.220612 
      9 C           1.724001    0.994201   -0.829420 C.3       1 <1>         0.126122 
     10 C           0.157053    1.116140   -0.879788 C.3       1 <1>         0.062118 
     11 C          -0.457621   -0.250170   -0.389850 C.3       1 <1>        -0.015636 
     12 C          -2.026780   -0.259726   -0.217534 C.3       1 <1>         0.030933 
     13 C           2.442336   -0.183504   -0.122687 C.3       1 <1>         0.032072 
     14 C           2.642258    2.271181   -1.051479 C.3       1 <1>         0.174500 
     15 C          -2.316833    0.906880    0.774452 C.3       1 <1>         0.004702 
     16 C           0.277722   -1.432177   -1.069727 C.3       1 <1>        -0.047882 
     17 C           1.768394   -1.523685   -0.590380 C.3       1 <1>        -0.041850 
     18 C          -2.667094   -1.374702    0.655514 C.3       1 <1>         0.076706 
     19 C          -0.361506    2.196478    0.050777 C.2       1 <1>         0.142705 
     20 C          -1.861653    2.300340    0.275973 C.3       1 <1>         0.012576 
     21 C          -3.734689    0.654328    1.345534 C.3       1 <1>         0.068212 
     22 C           3.940696   -0.158393   -0.580778 C.3       1 <1>         0.109557 
     23 C          -0.206810    1.559466   -2.338357 C.3       1 <1>        -0.049755 
     24 C          -2.805562   -0.294502   -1.574954 C.3       1 <1>         0.065694 
     25 C           2.438093    0.042012    1.430165 C.3       1 <1>        -0.054077 
     26 C           4.020104    2.208123   -0.435718 C.2       1 <1>         0.294796 
     27 C          -3.127031   -2.605995   -0.156117 C.3       1 <1>         0.060052 
     28 C          -4.862766    1.378463    0.562275 C.3       1 <1>        -0.035777 
     29 C          -3.865539    1.018106    2.853578 C.3       1 <1>        -0.035777 
     30 C           4.764772   -1.278164    0.060533 C.ar      1 <1>         0.086373 
     31 C          -4.221303   -2.119129   -1.060576 C.2       1 <1>         0.264681 
     32 C           5.462597   -1.217358    1.352509 C.ar      1 <1>         0.048517 
     33 C           5.037542   -2.526903   -0.423854 C.ar      1 <1>         0.326709 
     34 C           6.061858   -2.440914    1.497217 C.ar      1 <1>         0.321428 
     35 H          -0.140225   -0.433205    0.637521 H         1 <1>         0.031802 
     36 H           2.149618    3.244021   -1.188370 H         1 <1>         0.073137 
     37 H          -1.685539    0.769456    1.671078 H         1 <1>         0.033941 
     38 H           0.224775   -1.313509   -2.161778 H         1 <1>         0.026861 
     39 H          -0.199776   -2.391460   -0.829614 H         1 <1>         0.026861 
     40 H           1.845079   -2.247891    0.237147 H         1 <1>         0.027244 
     41 H           2.320176   -1.959666   -1.438262 H         1 <1>         0.027244 
     42 H          -2.002827   -1.679284    1.482292 H         1 <1>         0.060750 
     43 H          -2.064377    3.056233    1.052488 H         1 <1>         0.034554 
     44 H          -2.399268    2.608773   -0.629582 H         1 <1>         0.034554 
     45 H           4.048409   -0.268086   -1.673272 H         1 <1>         0.066173 
     46 H           0.100035    0.810481   -3.081771 H         1 <1>         0.024010 
     47 H          -1.256677    1.783031   -2.511604 H         1 <1>         0.024010 
     48 H           0.305861    2.500378   -2.585762 H         1 <1>         0.024010 
     49 H          -3.034824    0.703310   -1.953374 H         1 <1>         0.057239 
     50 H          -2.200493   -0.821016   -2.327501 H         1 <1>         0.057239 
     51 H           2.790124   -0.858903    1.953460 H         1 <1>         0.023689 
     52 H           3.106079    0.867320    1.713526 H         1 <1>         0.023689 
     53 H           1.469871    0.313916    1.862967 H         1 <1>         0.023689 
     54 H          -3.546444   -3.352679    0.536501 H         1 <1>         0.039177 
     55 H          -2.345177   -3.088181   -0.753557 H         1 <1>         0.039177 
     56 H          -4.851106    1.147627   -0.506669 H         1 <1>         0.025729 
     57 H          -5.841723    1.065884    0.955542 H         1 <1>         0.025729 
     58 H          -4.770085    2.468499    0.679399 H         1 <1>         0.025729 
     59 H          -3.164512    0.431167    3.466158 H         1 <1>         0.025729 
     60 H          -3.661330    2.088609    3.007893 H         1 <1>         0.025729 
     61 H          -4.881700    0.797229    3.213175 H         1 <1>         0.025729 
     62 H           5.496573   -0.379953    2.041392 H         1 <1>         0.071077 
     63 H           4.682230   -2.897623   -1.381009 H         1 <1>         0.176354 
     64 H           6.663379   -2.725000    2.357219 H         1 <1>         0.175965 
@<TRIPOS>BOND
     1    9    1 1    
     2   14    1 1    
     3   18    2 1    
     4    2   21 1    
     5   22    3 1    
     6    3   26 1    
     7   24    4 1    
     8    4   31 1    
     9   19    5 2    
    10   26    6 2    
    11   31    7 2    
    12   33    8 1    
    13    8   34 1    
    14    9   10 1    
    15   13    9 1    
    16    9   14 1    
    17   10   11 1    
    18   10   19 1    
    19   10   23 1    
    20   11   12 1    
    21   16   11 1    
    22   11   35 1    
    23   12   15 1    
    24   12   18 1    
    25   12   24 1    
    26   13   17 1    
    27   22   13 1    
    28   13   25 1    
    29   26   14 1    
    30   14   36 1    
    31   20   15 1    
    32   15   21 1    
    33   15   37 1    
    34   17   16 1    
    35   16   38 1    
    36   16   39 1    
    37   17   40 1    
    38   17   41 1    
    39   18   27 1    
    40   18   42 1    
    41   19   20 1    
    42   20   43 1    
    43   20   44 1    
    44   21   28 1    
    45   21   29 1    
    46   30   22 1    
    47   22   45 1    
    48   23   46 1    
    49   23   47 1    
    50   23   48 1    
    51   24   49 1    
    52   24   50 1    
    53   25   51 1    
    54   25   52 1    
    55   25   53 1    
    56   27   31 1    
    57   27   54 1    
    58   27   55 1    
    59   28   56 1    
    60   28   57 1    
    61   28   58 1    
    62   29   59 1    
    63   29   60 1    
    64   29   61 1    
    65   30   32 1    
    66   30   33 2    
    67   32   34 2    
    68   32   62 1    
    69   33   63 1    
    70   34   64 1    
@<TRIPOS>SUBSTRUCTURE
     1 ****        1 TEMP              0 ****  ****    0 ROOT 
@<TRIPOS>NORMAL
@<TRIPOS>FF_PBC
FORCE_FIELD_SETUP_FEATURE Force Field Setup information
v1.0  0 0.000000 0.000000 0.000000 0.000000 0.000000 0.000000 NONE 0 0 0 0 1 0 0 0 0 0 0 0 0
