@<TRIPOS>MOLECULE
MOL008050
   25    25     1     1     0
SMALL
GASTEIGER


@<TRIPOS>ATOM
      1 O           2.070764   -2.040081   -0.639869 O.3       1 <1>        -0.345243 
      2 O           3.752706    0.267108   -0.146164 O.3       1 <1>        -0.355389 
      3 O           2.577722    2.776106    0.253079 O.3       1 <1>        -0.357201 
      4 O          -5.198665   -0.968852    0.095632 O.3       1 <1>        -0.327929 
      5 O          -4.850089    1.182620   -0.330087 O.2       1 <1>        -0.260082 
      6 C          -0.536836    0.672346   -0.255246 C.ar      1 <1>        -0.019816 
      7 C           1.502115   -0.781274   -0.434236 C.ar      1 <1>         0.108522 
      8 C           0.110205   -0.646586   -0.476897 C.ar      1 <1>        -0.021833 
      9 C           2.360617    0.403131   -0.181281 C.ar      1 <1>         0.132703 
     10 C           0.281957    1.797091   -0.020265 C.ar      1 <1>        -0.022082 
     11 C           1.760738    1.665691    0.018903 C.ar      1 <1>         0.105344 
     12 C          -2.041197    0.859782   -0.275414 C.2       1 <1>        -0.048782 
     13 C          -2.927607   -0.127265   -0.083359 C.2       1 <1>         0.010299 
     14 C           2.646627   -2.634951    0.534534 C.3       1 <1>         0.043137 
     15 C          -4.389211    0.072079   -0.114157 C.2       1 <1>         0.284026 
     16 H          -0.478200   -1.531559   -0.682637 H         1 <1>         0.065003 
     17 H          -0.172091    2.769303    0.137995 H         1 <1>         0.064996 
     18 H          -2.417903    1.868105   -0.451337 H         1 <1>         0.062527 
     19 H          -2.613037   -1.148419    0.117664 H         1 <1>         0.067729 
     20 H           1.881216   -2.764876    1.315426 H         1 <1>         0.052871 
     21 H           3.473688   -2.028427    0.933524 H         1 <1>         0.052871 
     22 H           3.040652   -3.624221    0.259071 H         1 <1>         0.052871 
     23 H           4.186134    1.102378   -0.000288 H         1 <1>         0.217502 
     24 H           2.097600    3.587843    0.372002 H         1 <1>         0.217423 
     25 H          -6.117806   -0.727169    0.053508 H         1 <1>         0.220537 
@<TRIPOS>BOND
     1    7    1 1    
     2    1   14 1    
     3    9    2 1    
     4    2   23 1    
     5   11    3 1    
     6    3   24 1    
     7   15    4 1    
     8    4   25 1    
     9   15    5 2    
    10    6    8 1    
    11    6   10 2    
    12   12    6 1    
    13    8    7 2    
    14    7    9 1    
    15    8   16 1    
    16   11    9 2    
    17   10   11 1    
    18   10   17 1    
    19   13   12 2    
    20   12   18 1    
    21   13   15 1    
    22   13   19 1    
    23   14   20 1    
    24   14   21 1    
    25   14   22 1    
@<TRIPOS>SUBSTRUCTURE
     1 ****        1 TEMP              0 ****  ****    0 ROOT 
@<TRIPOS>NORMAL
@<TRIPOS>FF_PBC
FORCE_FIELD_SETUP_FEATURE Force Field Setup information
v1.0  0 0.000000 0.000000 0.000000 0.000000 0.000000 0.000000 NONE 0 0 0 0 1 0 0 0 0 0 0 0 0
