@<TRIPOS>MOLECULE
MOL004552
   38    40     1     1     0
SMALL
GASTEIGER


@<TRIPOS>ATOM
      1 C          -2.499942    3.469038   -0.144648 C.2       1 <1>         0.076064 
      2 C          -2.831590    2.037457   -0.031349 C.2       1 <1>        -0.031027 
      3 C          -1.882856    1.098796    0.054500 C.2       1 <1>        -0.047178 
      4 C          -0.420675    1.495146    0.027694 C.ar      1 <1>         0.036105 
      5 C          -0.174644    2.962650   -0.092946 C.ar      1 <1>         0.092939 
      6 O          -1.229815    3.870975   -0.169273 O.3       1 <1>        -0.309197 
      7 C          -3.461333    4.392072   -0.223918 C.2       1 <1>        -0.068014 
      8 C           1.076734    3.464920   -0.130413 C.ar      1 <1>        -0.026391 
      9 C           2.228491    2.548557   -0.055102 C.ar      1 <1>        -0.031549 
     10 C           2.039299    1.270769    0.052440 C.ar      1 <1>         0.008901 
     11 C           0.703050    0.639450    0.104317 C.ar      1 <1>         0.093558 
     12 C           3.711046    2.917161   -0.089797 C.3       1 <1>        -0.008447 
     13 C           4.310003    1.532751    0.028350 C.2       1 <1>        -0.079038 
     14 C           3.376476    0.582384    0.109764 C.2       1 <1>        -0.055454 
     15 O           0.676233   -0.758962    0.225684 O.3       1 <1>        -0.339420 
     16 C          -0.402685   -1.677320    0.017705 C.3       1 <1>         0.072688 
     17 C           0.169765   -3.070935   -0.003569 C.2       1 <1>        -0.059467 
     18 C          -0.587078   -4.176148    0.087331 C.2       1 <1>        -0.077462 
     19 C           0.028620   -5.559305    0.093795 C.3       1 <1>        -0.043978 
     20 C          -2.097973   -4.124252    0.193676 C.3       1 <1>        -0.043978 
     21 H          -3.881811    1.743334   -0.016488 H         1 <1>         0.064345 
     22 H          -2.267682    0.094094    0.138436 H         1 <1>         0.062584 
     23 H          -3.179813    5.442659   -0.306946 H         1 <1>         0.056037 
     24 H          -4.520696    4.133882   -0.208386 H         1 <1>         0.056037 
     25 H           1.231034    4.534933   -0.216191 H         1 <1>         0.064665 
     26 H           3.975251    3.398373   -1.043795 H         1 <1>         0.035581 
     27 H           3.981526    3.560076    0.762038 H         1 <1>         0.035581 
     28 H           5.383023    1.337778    0.045341 H         1 <1>         0.057548 
     29 H           3.530154   -0.493921    0.199755 H         1 <1>         0.062131 
     30 H          -1.099297   -1.626607    0.868602 H         1 <1>         0.060923 
     31 H          -0.892595   -1.480121   -0.950281 H         1 <1>         0.060923 
     32 H           1.253142   -3.154703   -0.094039 H         1 <1>         0.059424 
     33 H           1.129473   -5.534649    0.092525 H         1 <1>         0.027428 
     34 H          -0.301853   -6.112553   -0.798780 H         1 <1>         0.027428 
     35 H          -0.299858   -6.105586    0.991787 H         1 <1>         0.027428 
     36 H          -2.552766   -5.063165   -0.164317 H         1 <1>         0.027428 
     37 H          -2.377315   -3.977262    1.249554 H         1 <1>         0.027428 
     38 H          -2.515647   -3.303714   -0.409828 H         1 <1>         0.027428 
@<TRIPOS>BOND
     1    1    2 1    
     2    1    6 1    
     3    1    7 2    
     4    2    3 2    
     5    2   21 1    
     6    3    4 1    
     7    3   22 1    
     8    4    5 1    
     9    4   11 2    
    10    5    6 1    
    11    5    8 2    
    12    7   23 1    
    13    7   24 1    
    14    8    9 1    
    15    8   25 1    
    16    9   10 2    
    17    9   12 1    
    18   10   11 1    
    19   10   14 1    
    20   11   15 1    
    21   12   13 1    
    22   12   26 1    
    23   12   27 1    
    24   13   14 2    
    25   13   28 1    
    26   14   29 1    
    27   15   16 1    
    28   16   17 1    
    29   16   30 1    
    30   16   31 1    
    31   17   18 2    
    32   17   32 1    
    33   18   19 1    
    34   18   20 1    
    35   19   33 1    
    36   19   34 1    
    37   19   35 1    
    38   20   36 1    
    39   20   37 1    
    40   20   38 1    
@<TRIPOS>SUBSTRUCTURE
     1 ****        1 TEMP              0 ****  ****    0 ROOT 
@<TRIPOS>NORMAL
@<TRIPOS>FF_PBC
FORCE_FIELD_SETUP_FEATURE Force Field Setup information
v1.0  0 0.000000 0.000000 0.000000 0.000000 0.000000 0.000000 NONE 0 0 0 0 1 0 0 0 0 0 0 0 0
