@<TRIPOS>MOLECULE
MOL005016
   37    39     1     1     0
SMALL
GASTEIGER


@<TRIPOS>ATOM
      1 O           1.418841    2.478465   -0.179374 O.3       1 <1>        -0.315351 
      2 O           5.458140   -1.468707    0.402169 O.3       1 <1>        -0.345327 
      3 O           0.150121   -1.340567    0.398215 O.2       1 <1>        -0.286477 
      4 O           6.158742    1.233227    0.034087 O.3       1 <1>        -0.357210 
      5 O          -6.048767    0.001254    0.254029 O.3       1 <1>        -0.345349 
      6 O          -4.702145   -0.020522   -2.217909 O.3       1 <1>        -0.357256 
      7 C           2.046261    0.087358    0.180840 C.ar      1 <1>         0.055343 
      8 C          -0.341179    0.931655    0.060740 C.2       1 <1>         0.052646 
      9 C           2.410865    1.504418   -0.028495 C.ar      1 <1>         0.095734 
     10 C           0.569939   -0.207396    0.228327 C.2       1 <1>         0.198173 
     11 C          -1.831483    0.685087    0.107301 C.ar      1 <1>        -0.009704 
     12 C           3.034634   -0.895116    0.323675 C.ar      1 <1>        -0.015824 
     13 C           0.109343    2.179323   -0.130529 C.2       1 <1>         0.058254 
     14 C           3.758260    1.870531   -0.075968 C.ar      1 <1>         0.001818 
     15 C           4.462191   -0.501596    0.267191 C.ar      1 <1>         0.106240 
     16 C          -2.543613    0.446098   -1.075158 C.ar      1 <1>        -0.021502 
     17 C           4.817881    0.845916    0.078967 C.ar      1 <1>         0.104959 
     18 C          -2.538040    0.699527    1.409996 C.ar      1 <1>        -0.051251 
     19 C          -4.005591    0.211528   -1.029792 C.ar      1 <1>         0.103018 
     20 C          -4.672590    0.225211    0.206680 C.ar      1 <1>         0.105439 
     21 C          -3.918940    0.477548    1.457321 C.ar      1 <1>        -0.028580 
     22 C           5.757840   -2.163709   -0.819370 C.3       1 <1>         0.043136 
     23 C          -6.403547   -1.346620    0.602871 C.3       1 <1>         0.043135 
     24 H           2.765578   -1.934423    0.476307 H         1 <1>         0.065201 
     25 H          -0.597716    3.000290   -0.253109 H         1 <1>         0.089749 
     26 H           4.032174    2.908068   -0.227576 H         1 <1>         0.067029 
     27 H          -2.030949    0.431402   -2.030415 H         1 <1>         0.065014 
     28 H          -1.982084    0.883234    2.323805 H         1 <1>         0.062445 
     29 H          -4.445028    0.489701    2.405890 H         1 <1>         0.064429 
     30 H           6.743500    0.511534    0.245839 H         1 <1>         0.217423 
     31 H           6.553955   -2.894618   -0.614582 H         1 <1>         0.052871 
     32 H           6.112827   -1.462344   -1.590854 H         1 <1>         0.052871 
     33 H           4.873411   -2.701301   -1.195123 H         1 <1>         0.052871 
     34 H          -5.641695   -0.073087   -2.071565 H         1 <1>         0.217422 
     35 H          -6.025001   -1.610104    1.602654 H         1 <1>         0.052871 
     36 H          -6.004420   -2.058108   -0.137040 H         1 <1>         0.052871 
     37 H          -7.500816   -1.423356    0.609956 H         1 <1>         0.052871 
@<TRIPOS>BOND
     1    1    9 1    
     2   13    1 1    
     3   15    2 1    
     4    2   22 1    
     5   10    3 2    
     6   17    4 1    
     7    4   30 1    
     8   20    5 1    
     9    5   23 1    
    10   19    6 1    
    11    6   34 1    
    12    7    9 1    
    13   10    7 1    
    14    7   12 2    
    15    8   10 1    
    16   11    8 1    
    17    8   13 2    
    18    9   14 2    
    19   16   11 2    
    20   11   18 1    
    21   12   15 1    
    22   12   24 1    
    23   13   25 1    
    24   14   17 1    
    25   14   26 1    
    26   15   17 2    
    27   19   16 1    
    28   16   27 1    
    29   18   21 2    
    30   18   28 1    
    31   19   20 2    
    32   20   21 1    
    33   21   29 1    
    34   22   31 1    
    35   22   32 1    
    36   22   33 1    
    37   23   35 1    
    38   23   36 1    
    39   23   37 1    
@<TRIPOS>SUBSTRUCTURE
     1 ****        1 TEMP              0 ****  ****    0 ROOT 
@<TRIPOS>NORMAL
@<TRIPOS>FF_PBC
FORCE_FIELD_SETUP_FEATURE Force Field Setup information
v1.0  0 0.000000 0.000000 0.000000 0.000000 0.000000 0.000000 NONE 0 0 0 0 1 0 0 0 0 0 0 0 0
