@<TRIPOS>MOLECULE
MOL002296
   95    99     1     1     0
SMALL
GASTEIGER


@<TRIPOS>ATOM
      1 C          -5.893614   -2.842505    2.108343 C.3       1 <1>         0.114061 
      2 C          -6.733676   -1.665712    1.551695 C.3       1 <1>         0.134121 
      3 C          -5.791738   -0.523980    1.067510 C.3       1 <1>         0.188218 
      4 O          -4.885397   -0.102471    2.104494 O.3       1 <1>        -0.340523 
      5 C          -4.061742   -1.150085    2.657314 C.3       1 <1>         0.113005 
      6 C          -4.918861   -2.325337    3.201875 C.3       1 <1>         0.111896 
      7 O          -5.633575   -1.849642    4.362198 O.3       1 <1>        -0.386488 
      8 O          -5.207609   -3.508684    1.027951 O.3       1 <1>        -0.386401 
      9 O          -7.665934   -1.219320    2.561063 O.3       1 <1>        -0.384104 
     10 O          -5.044005   -0.911151   -0.102453 O.3       1 <1>        -0.345118 
     11 C          -5.729045   -0.755056   -1.366500 C.3       1 <1>         0.065471 
     12 C          -4.989558   -1.651320   -2.382214 C.3       1 <1>        -0.004974 
     13 C          -3.530093   -1.256161   -2.502102 C.2       1 <1>        -0.067647 
     14 C          -3.215913    0.216737   -2.740742 C.3       1 <1>        -0.016638 
     15 C          -4.130639    1.130802   -1.868243 C.3       1 <1>        -0.043897 
     16 C          -5.620371    0.699509   -1.878213 C.3       1 <1>        -0.025650 
     17 C          -1.673777    0.576320   -2.698885 C.3       1 <1>        -0.031142 
     18 C          -0.807161   -0.509346   -2.004148 C.3       1 <1>        -0.031142 
     19 C          -1.128953   -1.925220   -2.545569 C.3       1 <1>        -0.031128 
     20 C          -2.592061   -2.210587   -2.421019 C.2       1 <1>        -0.084130 
     21 H          -1.327768    0.514976   -3.746385 H         1 <1>         0.030933 
     22 C          -1.261134    2.005784   -2.179238 C.3       1 <1>        -0.049132 
     23 C          -0.002957    2.025145   -1.255904 C.3       1 <1>        -0.049413 
     24 C           1.176501    1.232397   -1.879000 C.3       1 <1>        -0.034853 
     25 C           0.705683   -0.207580   -2.247718 C.3       1 <1>        -0.034557 
     26 H          -1.045986   -0.508617   -0.929486 H         1 <1>         0.030932 
     27 H           0.922921   -0.370715   -3.319546 H         1 <1>         0.030637 
     28 C           1.634512   -1.155244   -1.460589 C.3       1 <1>        -0.049413 
     29 C           2.430565    1.079637   -0.948308 C.3       1 <1>        -0.035354 
     30 C           2.933469   -0.337000   -1.357146 C.3       1 <1>        -0.049439 
     31 C           3.553590    2.177493   -1.053344 C.3       1 <1>        -0.040777 
     32 C           3.002431    3.625941   -1.230362 C.3       1 <1>        -0.062155 
     33 C           4.513402    2.225014    0.184948 C.3       1 <1>        -0.049941 
     34 C           5.209146    0.896500    0.581544 C.3       1 <1>        -0.049734 
     35 C           6.436784    1.046184    1.536455 C.3       1 <1>        -0.038944 
     36 C           6.077257    1.758848    2.884838 C.3       1 <1>        -0.052828 
     37 C           7.140629   -0.332615    1.808244 C.3       1 <1>        -0.043894 
     38 C           6.242306    3.306804    2.873912 C.3       1 <1>        -0.065017 
     39 C           7.722859   -0.992675    0.524779 C.3       1 <1>        -0.062414 
     40 C           6.254928   -1.366858    2.564496 C.3       1 <1>        -0.062414 
     41 C          -2.880333   -1.578612    1.738037 C.3       1 <1>         0.073015 
     42 O          -2.023807   -0.451064    1.484080 O.3       1 <1>        -0.392366 
     43 H          -6.595937   -3.562563    2.562617 H         1 <1>         0.064758 
     44 H          -7.313822   -2.063334    0.703098 H         1 <1>         0.067095 
     45 H          -6.388594    0.380367    0.868776 H         1 <1>         0.093750 
     46 H          -3.577078   -0.680371    3.529930 H         1 <1>         0.064668 
     47 H          -4.254785   -3.146715    3.526002 H         1 <1>         0.064673 
     48 H          -6.196119   -2.500856    4.769061 H         1 <1>         0.210004 
     49 H          -4.727366   -4.285790    1.298945 H         1 <1>         0.210005 
     50 H          -8.233936   -0.515239    2.264023 H         1 <1>         0.210110 
     51 H          -6.784566   -1.072198   -1.336193 H         1 <1>         0.059993 
     52 H          -5.118341   -2.691147   -2.033344 H         1 <1>         0.033510 
     53 H          -5.454156   -1.575917   -3.379300 H         1 <1>         0.033510 
     54 H          -3.573525    0.397157   -3.770113 H         1 <1>         0.034838 
     55 H          -4.119469    2.165109   -2.252145 H         1 <1>         0.027186 
     56 H          -3.770585    1.127682   -0.829050 H         1 <1>         0.027186 
     57 H          -6.207003    1.380942   -1.246875 H         1 <1>         0.029039 
     58 H          -6.028501    0.769889   -2.899663 H         1 <1>         0.029039 
     59 H          -0.583002   -2.689063   -1.967437 H         1 <1>         0.031025 
     60 H          -0.852650   -2.029571   -3.606883 H         1 <1>         0.031025 
     61 H          -2.875627   -3.253047   -2.273163 H         1 <1>         0.057181 
     62 H          -1.083499    2.672174   -3.041423 H         1 <1>         0.026829 
     63 H          -2.017579    2.502570   -1.559934 H         1 <1>         0.026829 
     64 H          -0.256176    1.591202   -0.274492 H         1 <1>         0.026820 
     65 H           0.283787    3.071612   -1.070652 H         1 <1>         0.026820 
     66 H           1.473574    1.737852   -2.811873 H         1 <1>         0.030628 
     67 H           1.797239   -2.121511   -1.965498 H         1 <1>         0.026820 
     68 H           1.236992   -1.341406   -0.449272 H         1 <1>         0.026820 
     69 H           2.084044    1.041259    0.098436 H         1 <1>         0.030611 
     70 H           3.596746   -0.859471   -0.656992 H         1 <1>         0.026819 
     71 H           3.426546   -0.297427   -2.343402 H         1 <1>         0.026819 
     72 H           4.159283    1.967486   -1.951075 H         1 <1>         0.030088 
     73 H           3.828618    4.350012   -1.313895 H         1 <1>         0.023250 
     74 H           2.400019    3.741825   -2.141522 H         1 <1>         0.023250 
     75 H           2.394433    3.911585   -0.360079 H         1 <1>         0.023250 
     76 H           5.312444    2.949443   -0.042335 H         1 <1>         0.026802 
     77 H           3.939885    2.584628    1.053940 H         1 <1>         0.026802 
     78 H           4.465402    0.259334    1.080189 H         1 <1>         0.026810 
     79 H           5.543073    0.431384   -0.356438 H         1 <1>         0.026810 
     80 H           7.184512    1.670851    1.018611 H         1 <1>         0.030319 
     81 H           5.055247    1.488443    3.196858 H         1 <1>         0.026538 
     82 H           6.759234    1.416034    3.680670 H         1 <1>         0.026538 
     83 H           8.016875   -0.125861    2.448241 H         1 <1>         0.029814 
     84 H           6.020036    3.705273    3.877142 H         1 <1>         0.022986 
     85 H           7.280125    3.575325    2.621035 H         1 <1>         0.022986 
     86 H           5.575862    3.814943    2.166816 H         1 <1>         0.022986 
     87 H           8.395482   -1.822188    0.795762 H         1 <1>         0.023242 
     88 H           8.303292   -0.263666   -0.062382 H         1 <1>         0.023242 
     89 H           6.930473   -1.411155   -0.112251 H         1 <1>         0.023242 
     90 H           6.861056   -2.242118    2.849194 H         1 <1>         0.023242 
     91 H           5.830891   -0.939680    3.485191 H         1 <1>         0.023242 
     92 H           5.430857   -1.723794    1.930037 H         1 <1>         0.023242 
     93 H          -3.205275   -2.032224    0.791244 H         1 <1>         0.058370 
     94 H          -2.255613   -2.321278    2.259307 H         1 <1>         0.058370 
     95 H          -2.504645    0.256001    1.064596 H         1 <1>         0.209508 
@<TRIPOS>BOND
     1    1    2 1    
     2    1    6 1    
     3    1    8 1    
     4    1   43 1    
     5    2    3 1    
     6    2    9 1    
     7    2   44 1    
     8    3    4 1    
     9    3   10 1    
    10    3   45 1    
    11    4    5 1    
    12    5    6 1    
    13    5   41 1    
    14    5   46 1    
    15    6    7 1    
    16    6   47 1    
    17    7   48 1    
    18    8   49 1    
    19    9   50 1    
    20   10   11 1    
    21   11   12 1    
    22   11   16 1    
    23   11   51 1    
    24   12   13 1    
    25   12   52 1    
    26   12   53 1    
    27   13   14 1    
    28   13   20 2    
    29   14   15 1    
    30   14   17 1    
    31   14   54 1    
    32   15   16 1    
    33   15   55 1    
    34   15   56 1    
    35   16   57 1    
    36   16   58 1    
    37   17   18 1    
    38   17   21 1    
    39   17   22 1    
    40   18   19 1    
    41   18   25 1    
    42   18   26 1    
    43   19   20 1    
    44   19   59 1    
    45   19   60 1    
    46   20   61 1    
    47   22   23 1    
    48   22   62 1    
    49   22   63 1    
    50   23   24 1    
    51   23   64 1    
    52   23   65 1    
    53   24   25 1    
    54   24   29 1    
    55   24   66 1    
    56   25   27 1    
    57   25   28 1    
    58   28   30 1    
    59   28   67 1    
    60   28   68 1    
    61   29   30 1    
    62   29   31 1    
    63   29   69 1    
    64   30   70 1    
    65   30   71 1    
    66   31   32 1    
    67   31   33 1    
    68   31   72 1    
    69   32   73 1    
    70   32   74 1    
    71   32   75 1    
    72   33   34 1    
    73   33   76 1    
    74   33   77 1    
    75   34   35 1    
    76   34   78 1    
    77   34   79 1    
    78   35   36 1    
    79   35   37 1    
    80   35   80 1    
    81   36   38 1    
    82   36   81 1    
    83   36   82 1    
    84   37   39 1    
    85   37   40 1    
    86   37   83 1    
    87   38   84 1    
    88   38   85 1    
    89   38   86 1    
    90   39   87 1    
    91   39   88 1    
    92   39   89 1    
    93   40   90 1    
    94   40   91 1    
    95   40   92 1    
    96   41   42 1    
    97   41   93 1    
    98   41   94 1    
    99   42   95 1    
@<TRIPOS>SUBSTRUCTURE
     1 ****        1 TEMP              0 ****  ****    0 ROOT 
@<TRIPOS>NORMAL
@<TRIPOS>FF_PBC
FORCE_FIELD_SETUP_FEATURE Force Field Setup information
v1.0  0 0.000000 0.000000 0.000000 0.000000 0.000000 0.000000 NONE 0 0 0 0 1 0 0 0 0 0 0 0 0
