@<TRIPOS>MOLECULE
MOL002579
   49    49     1     1     0
SMALL
GASTEIGER


@<TRIPOS>ATOM
      1 C          -1.637479   -4.094727   -1.800838 C.ar      1 <1>        -0.027729 
      2 C          -1.167039   -5.429960   -1.357387 C.ar      1 <1>        -0.024481 
      3 C          -3.017865   -3.857224   -1.923266 C.ar      1 <1>        -0.054485 
      4 C          -0.638205   -2.978338   -2.128488 C.3       1 <1>         0.036910 
      5 C          -2.081590   -6.451480   -1.073750 C.ar      1 <1>         0.105709 
      6 C          -3.991948   -4.932002   -1.617012 C.ar      1 <1>        -0.029091 
      7 N          -0.673748   -1.928066   -1.114911 N.am      1 <1>        -0.311195 
      8 C          -3.541700   -6.206047   -1.199504 C.ar      1 <1>         0.102453 
      9 O          -1.604259   -7.700036   -0.670070 O.3       1 <1>        -0.345340 
     10 C           0.048357   -0.800665   -1.302575 C.2       1 <1>         0.213280 
     11 O          -4.447402   -7.231718   -0.904035 O.3       1 <1>        -0.357269 
     12 C          -1.734491   -8.730257   -1.663590 C.3       1 <1>         0.043136 
     13 C          -0.003801    0.268973   -0.237947 C.3       1 <1>         0.023969 
     14 O           0.731639   -0.631203   -2.299039 O.2       1 <1>        -0.275811 
     15 C           0.818498    1.529531   -0.621282 C.3       1 <1>        -0.044516 
     16 C           0.721616    2.633806    0.466297 C.3       1 <1>        -0.049179 
     17 C           1.526884    3.894722    0.054393 C.3       1 <1>        -0.034741 
     18 C           1.378027    4.980814    1.094718 C.2       1 <1>        -0.087686 
     19 C           2.417005    5.523358    1.745217 C.2       1 <1>        -0.085356 
     20 C           2.270016    6.619442    2.777552 C.3       1 <1>        -0.028570 
     21 C           2.877906    6.149281    4.124788 C.3       1 <1>        -0.059207 
     22 C           2.979330    7.898654    2.262319 C.3       1 <1>        -0.059207 
     23 H          -0.106406   -5.629451   -1.249877 H         1 <1>         0.064734 
     24 H          -3.374917   -2.883586   -2.243625 H         1 <1>         0.062160 
     25 H           0.381388   -3.389928   -2.192924 H         1 <1>         0.051153 
     26 H          -0.900388   -2.563776   -3.115600 H         1 <1>         0.051153 
     27 H          -5.052129   -4.727488   -1.719469 H         1 <1>         0.064412 
     28 H          -1.221137   -2.065140   -0.286310 H         1 <1>         0.149017 
     29 H          -5.360224   -6.968591   -0.928002 H         1 <1>         0.217422 
     30 H          -1.309000   -9.657780   -1.252607 H         1 <1>         0.052871 
     31 H          -1.178751   -8.462044   -2.576161 H         1 <1>         0.052871 
     32 H          -2.789217   -8.913444   -1.920204 H         1 <1>         0.052871 
     33 H          -1.057351    0.549731   -0.084593 H         1 <1>         0.035827 
     34 H           0.386099   -0.155462    0.700223 H         1 <1>         0.035827 
     35 H           1.874261    1.243658   -0.764183 H         1 <1>         0.026989 
     36 H           0.436891    1.928519   -1.575852 H         1 <1>         0.026989 
     37 H          -0.335860    2.908376    0.613465 H         1 <1>         0.026833 
     38 H           1.115098    2.250370    1.421800 H         1 <1>         0.026833 
     39 H           2.583321    3.618670   -0.096642 H         1 <1>         0.030732 
     40 H           1.141150    4.286124   -0.900518 H         1 <1>         0.030732 
     41 H           0.365420    5.327958    1.307166 H         1 <1>         0.056904 
     42 H           3.429407    5.176856    1.533900 H         1 <1>         0.057156 
     43 H           1.206607    6.861097    2.948117 H         1 <1>         0.033758 
     44 H           2.769766    6.933175    4.890793 H         1 <1>         0.023527 
     45 H           2.360209    5.242597    4.475851 H         1 <1>         0.023527 
     46 H           3.948057    5.919589    4.005408 H         1 <1>         0.023527 
     47 H           2.871936    8.719278    2.988265 H         1 <1>         0.023527 
     48 H           2.534059    8.216732    1.306731 H         1 <1>         0.023527 
     49 H           4.051556    7.707203    2.103557 H         1 <1>         0.023527 
@<TRIPOS>BOND
     1    1    2 1    
     2    1    3 2    
     3    1    4 1    
     4    2    5 2    
     5    2   23 1    
     6    3    6 1    
     7    3   24 1    
     8    4    7 1    
     9    4   25 1    
    10    4   26 1    
    11    5    8 1    
    12    5    9 1    
    13    6    8 2    
    14    6   27 1    
    15    7   10 1    
    16    7   28 1    
    17    8   11 1    
    18    9   12 1    
    19   10   13 1    
    20   10   14 2    
    21   11   29 1    
    22   12   30 1    
    23   12   31 1    
    24   12   32 1    
    25   13   15 1    
    26   13   33 1    
    27   13   34 1    
    28   15   16 1    
    29   15   35 1    
    30   15   36 1    
    31   16   17 1    
    32   16   37 1    
    33   16   38 1    
    34   17   18 1    
    35   17   39 1    
    36   17   40 1    
    37   18   19 2    
    38   18   41 1    
    39   19   20 1    
    40   19   42 1    
    41   20   21 1    
    42   20   22 1    
    43   20   43 1    
    44   21   44 1    
    45   21   45 1    
    46   21   46 1    
    47   22   47 1    
    48   22   48 1    
    49   22   49 1    
@<TRIPOS>SUBSTRUCTURE
     1 ****        1 TEMP              0 ****  ****    0 ROOT 
@<TRIPOS>NORMAL
@<TRIPOS>FF_PBC
FORCE_FIELD_SETUP_FEATURE Force Field Setup information
v1.0  0 0.000000 0.000000 0.000000 0.000000 0.000000 0.000000 NONE 0 0 0 0 1 0 0 0 0 0 0 0 0
