@<TRIPOS>MOLECULE
MOL001285
   27    26     1     1     0
SMALL
GASTEIGER


@<TRIPOS>ATOM
      1 C           3.774816    0.994791    1.720607 C.3       1 <1>         0.044206 
      2 C           2.225340    0.999815    1.730666 C.3       1 <1>        -0.029718 
      3 C           1.641697    0.279762    0.484259 C.3       1 <1>        -0.050987 
      4 C           0.088427    0.288312    0.500371 C.3       1 <1>        -0.052986 
      5 C          -0.493725   -0.432095   -0.746834 C.3       1 <1>        -0.053064 
      6 C          -2.046987   -0.424691   -0.733789 C.3       1 <1>        -0.053306 
      7 C          -2.626283   -1.145280   -1.981777 C.3       1 <1>        -0.055911 
      8 C          -4.177170   -1.137285   -1.969443 C.3       1 <1>        -0.065276 
      9 O           4.237838    1.676071    2.900424 O.3       1 <1>        -0.395007 
     10 H           4.141292    1.508645    0.815144 H         1 <1>         0.055696 
     11 H           4.142070   -0.046011    1.712582 H         1 <1>         0.055696 
     12 H           1.876569    0.498640    2.648504 H         1 <1>         0.028724 
     13 H           1.875792    2.045017    1.755546 H         1 <1>         0.028724 
     14 H           1.999204    0.784765   -0.428240 H         1 <1>         0.026599 
     15 H           1.999944   -0.762735    0.465361 H         1 <1>         0.026599 
     16 H          -0.269377   -0.216476    1.412971 H         1 <1>         0.026529 
     17 H          -0.270059    1.330807    0.519556 H         1 <1>         0.026529 
     18 H          -0.135358    0.072667   -1.659169 H         1 <1>         0.026528 
     19 H          -0.135167   -1.474520   -0.765650 H         1 <1>         0.026528 
     20 H          -2.406862   -0.930057    0.177572 H         1 <1>         0.026520 
     21 H          -2.406915    0.617234   -0.715849 H         1 <1>         0.026520 
     22 H          -2.271263   -0.642181   -2.896737 H         1 <1>         0.026265 
     23 H          -2.272033   -2.189486   -2.002939 H         1 <1>         0.026265 
     24 H          -4.566104   -1.652706   -2.861980 H         1 <1>         0.022978 
     25 H          -4.557184   -1.653374   -1.073930 H         1 <1>         0.022978 
     26 H          -4.556298   -0.103374   -1.969420 H         1 <1>         0.022978 
     27 H           5.187793    1.712746    2.963194 H         1 <1>         0.209395 
@<TRIPOS>BOND
     1    1    2 1    
     2    1    9 1    
     3    1   10 1    
     4    1   11 1    
     5    2    3 1    
     6    2   12 1    
     7    2   13 1    
     8    3    4 1    
     9    3   14 1    
    10    3   15 1    
    11    4    5 1    
    12    4   16 1    
    13    4   17 1    
    14    5    6 1    
    15    5   18 1    
    16    5   19 1    
    17    6    7 1    
    18    6   20 1    
    19    6   21 1    
    20    7    8 1    
    21    7   22 1    
    22    7   23 1    
    23    8   24 1    
    24    8   25 1    
    25    8   26 1    
    26    9   27 1    
@<TRIPOS>SUBSTRUCTURE
     1 ****        1 TEMP              0 ****  ****    0 ROOT 
@<TRIPOS>NORMAL
@<TRIPOS>FF_PBC
FORCE_FIELD_SETUP_FEATURE Force Field Setup information
v1.0  0 0.000000 0.000000 0.000000 0.000000 0.000000 0.000000 NONE 0 0 0 0 1 0 0 0 0 0 0 0 0
