@<TRIPOS>MOLECULE
MOL004980
   42    44     1     1     0
SMALL
GASTEIGER


@<TRIPOS>ATOM
      1 O           1.218726    4.167477   -0.878271 O.3       1 <1>        -0.273677 
      2 O           3.182158    4.883799   -1.579846 O.2       1 <1>        -0.259459 
      3 C          -1.470474    0.925832   -0.035581 C.ar      1 <1>        -0.013199 
      4 C          -1.904644    2.337410    0.141030 C.ar      1 <1>         0.078534 
      5 C          -0.159386    0.659012   -0.469938 C.ar      1 <1>        -0.045605 
      6 C           0.789979    1.765388   -0.748535 C.ar      1 <1>         0.013890 
      7 C          -1.015025    3.376350   -0.139601 C.ar      1 <1>        -0.000413 
      8 C           0.364951    3.095796   -0.598580 C.ar      1 <1>         0.096601 
      9 C           2.208016    1.507350   -1.205855 C.2       1 <1>        -0.002580 
     10 C           2.974363    2.566636   -1.479927 C.2       1 <1>         0.018661 
     11 C           2.460759    3.936724   -1.316282 C.2       1 <1>         0.292164 
     12 C          -2.441945   -0.230934    0.245620 C.3       1 <1>        -0.006790 
     13 C           2.766611    0.109549   -1.356741 C.ar      1 <1>        -0.016901 
     14 C           2.731506   -0.835842   -0.214658 C.ar      1 <1>        -0.051579 
     15 C           3.236382   -2.132599   -0.359776 C.ar      1 <1>        -0.031365 
     16 C           3.816048   -2.573774   -1.649683 C.ar      1 <1>         0.072617 
     17 C           3.863001   -1.673366   -2.727235 C.ar      1 <1>        -0.031365 
     18 C           3.325837   -0.300123   -2.573786 C.ar      1 <1>        -0.051579 
     19 C          -2.544667   -0.479971    1.731680 C.2       1 <1>        -0.080898 
     20 C          -3.304855   -1.433062    2.296032 C.2       1 <1>        -0.079307 
     21 O          -3.193190    2.648364    0.578014 O.3       1 <1>        -0.359468 
     22 C          -4.167567   -2.400610    1.513752 C.3       1 <1>        -0.044040 
     23 C          -3.349804   -1.610311    3.798914 C.3       1 <1>        -0.044040 
     24 O           4.306483   -3.877547   -1.764476 O.3       1 <1>        -0.359832 
     25 H           0.156842   -0.367067   -0.609104 H         1 <1>         0.062803 
     26 H          -1.338560    4.403664   -0.017087 H         1 <1>         0.066954 
     27 H           4.001571    2.440068   -1.821110 H         1 <1>         0.068362 
     28 H          -3.426785    0.034261   -0.169656 H         1 <1>         0.035640 
     29 H          -2.095219   -1.148271   -0.256114 H         1 <1>         0.035640 
     30 H           2.316955   -0.519622    0.737478 H         1 <1>         0.062441 
     31 H           3.209813   -2.826064    0.473995 H         1 <1>         0.064338 
     32 H           4.289506   -1.972875   -3.678553 H         1 <1>         0.064338 
     33 H           3.363144    0.384468   -3.414821 H         1 <1>         0.062441 
     34 H          -1.951558    0.170285    2.376454 H         1 <1>         0.057472 
     35 H          -3.494113    2.075950    1.274052 H         1 <1>         0.217326 
     36 H          -4.148113   -2.250157    0.426111 H         1 <1>         0.027427 
     37 H          -5.212143   -2.304493    1.846236 H         1 <1>         0.027427 
     38 H          -3.829394   -3.427772    1.718527 H         1 <1>         0.027427 
     39 H          -2.730532   -0.880254    4.341787 H         1 <1>         0.027427 
     40 H          -4.386404   -1.503379    4.151736 H         1 <1>         0.027427 
     41 H          -2.992335   -2.618317    4.056961 H         1 <1>         0.027427 
     42 H           4.574062   -4.121767   -2.643265 H         1 <1>         0.217313 
@<TRIPOS>BOND
     1    8    1 1    
     2    1   11 1    
     3   11    2 2    
     4    3    4 1    
     5    5    3 2    
     6    3   12 1    
     7    4    7 2    
     8    4   21 1    
     9    6    5 1    
    10    5   25 1    
    11    6    8 2    
    12    6    9 1    
    13    7    8 1    
    14    7   26 1    
    15    9   10 2    
    16    9   13 1    
    17   10   11 1    
    18   10   27 1    
    19   12   19 1    
    20   12   28 1    
    21   12   29 1    
    22   13   14 1    
    23   13   18 2    
    24   14   15 2    
    25   14   30 1    
    26   15   16 1    
    27   15   31 1    
    28   16   17 2    
    29   16   24 1    
    30   17   18 1    
    31   17   32 1    
    32   18   33 1    
    33   19   20 2    
    34   19   34 1    
    35   20   22 1    
    36   20   23 1    
    37   21   35 1    
    38   22   36 1    
    39   22   37 1    
    40   22   38 1    
    41   23   39 1    
    42   23   40 1    
    43   23   41 1    
    44   24   42 1    
@<TRIPOS>SUBSTRUCTURE
     1 ****        3 TEMP              0 ****  ****    0 ROOT 
@<TRIPOS>NORMAL
@<TRIPOS>FF_PBC
FORCE_FIELD_SETUP_FEATURE Force Field Setup information
v1.0  0 0.000000 0.000000 0.000000 0.000000 0.000000 0.000000 NONE 0 0 0 0 1 0 0 0 0 0 0 0 0
