@<TRIPOS>MOLECULE
MOL004945
   44    46     1     1     0
SMALL
GASTEIGER


@<TRIPOS>ATOM
      1 C          -0.969762   -1.502264   -0.237584 C.3       1 <1>         0.097171 
      2 C          -1.181677   -2.829422    0.528032 C.3       1 <1>         0.041477 
      3 C           0.070012   -3.649234    0.402882 C.2       1 <1>         0.168437 
      4 C           1.394114   -2.931714    0.243769 C.ar      1 <1>         0.047883 
      5 C           1.369609   -1.452030    0.199141 C.ar      1 <1>         0.093336 
      6 O           0.148194   -0.786525    0.315138 O.3       1 <1>        -0.335388 
      7 C           2.519594   -0.758466    0.052962 C.ar      1 <1>         0.016685 
      8 C           3.811297   -1.490192   -0.062617 C.ar      1 <1>         0.078530 
      9 C           3.821321   -2.845595   -0.003552 C.ar      1 <1>        -0.030837 
     10 C           2.552323   -3.597026    0.144735 C.ar      1 <1>        -0.046328 
     11 O           0.014841   -4.866505    0.426748 O.2       1 <1>        -0.291871 
     12 C           2.554981    0.776511    0.018310 C.3       1 <1>        -0.004333 
     13 C           1.342353    1.472655   -0.552870 C.2       1 <1>        -0.080815 
     14 C           1.000499    2.733675   -0.239115 C.2       1 <1>        -0.079306 
     15 C          -0.255851    3.356814   -0.797306 C.3       1 <1>        -0.044040 
     16 C           1.812109    3.633416    0.675980 C.3       1 <1>        -0.044040 
     17 C          -2.206607   -0.604674   -0.135658 C.ar      1 <1>        -0.017820 
     18 C          -3.025944   -0.345279   -1.344720 C.ar      1 <1>        -0.053661 
     19 C          -4.146922    0.485027   -1.268809 C.ar      1 <1>        -0.031601 
     20 C          -4.533463    1.106019    0.018781 C.ar      1 <1>         0.072600 
     21 C          -3.762565    0.854083    1.168226 C.ar      1 <1>        -0.031601 
     22 C          -2.565803   -0.017251    1.086160 C.ar      1 <1>        -0.053661 
     23 O          -5.663277    1.928101    0.063979 O.3       1 <1>        -0.359832 
     24 O           4.995806   -0.761245   -0.224200 O.3       1 <1>        -0.359468 
     25 H          -0.766797   -1.720020   -1.301526 H         1 <1>         0.065571 
     26 H          -2.032188   -3.383837    0.100963 H         1 <1>         0.037398 
     27 H          -1.376016   -2.626737    1.591420 H         1 <1>         0.037398 
     28 H           4.749923   -3.402013   -0.062859 H         1 <1>         0.064350 
     29 H           2.569150   -4.682375    0.171264 H         1 <1>         0.062610 
     30 H           3.410582    1.114558   -0.586447 H         1 <1>         0.035721 
     31 H           2.710249    1.079977    1.064058 H         1 <1>         0.035721 
     32 H           0.724709    0.916980   -1.260728 H         1 <1>         0.057473 
     33 H          -0.923435    2.648126   -1.316264 H         1 <1>         0.027427 
     34 H          -0.809860    3.805001    0.042474 H         1 <1>         0.027427 
     35 H           0.048255    4.144292   -1.504478 H         1 <1>         0.027427 
     36 H           2.892212    3.424411    0.635251 H         1 <1>         0.027427 
     37 H           1.454890    3.508158    1.710495 H         1 <1>         0.027427 
     38 H           1.688250    4.693863    0.400496 H         1 <1>         0.027427 
     39 H          -2.757794   -0.795800   -2.294881 H         1 <1>         0.062190 
     40 H          -4.741341    0.679477   -2.155634 H         1 <1>         0.064329 
     41 H          -4.034298    1.292753    2.122458 H         1 <1>         0.064329 
     42 H          -1.970406   -0.192299    1.977535 H         1 <1>         0.062190 
     43 H          -5.774742    2.395034    0.883901 H         1 <1>         0.217313 
     44 H           5.793186   -1.279202   -0.262383 H         1 <1>         0.217326 
@<TRIPOS>BOND
     1    1    2 1    
     2    1    6 1    
     3    1   17 1    
     4    1   25 1    
     5    2    3 1    
     6    2   26 1    
     7    2   27 1    
     8    3    4 1    
     9    3   11 2    
    10    4    5 1    
    11    4   10 2    
    12    5    6 1    
    13    5    7 2    
    14    7    8 1    
    15    7   12 1    
    16    8    9 2    
    17    8   24 1    
    18    9   10 1    
    19    9   28 1    
    20   10   29 1    
    21   12   13 1    
    22   12   30 1    
    23   12   31 1    
    24   13   14 2    
    25   13   32 1    
    26   14   15 1    
    27   14   16 1    
    28   15   33 1    
    29   15   34 1    
    30   15   35 1    
    31   16   36 1    
    32   16   37 1    
    33   16   38 1    
    34   17   18 1    
    35   17   22 2    
    36   18   19 2    
    37   18   39 1    
    38   19   20 1    
    39   19   40 1    
    40   20   21 2    
    41   20   23 1    
    42   21   22 1    
    43   21   41 1    
    44   22   42 1    
    45   23   43 1    
    46   24   44 1    
@<TRIPOS>SUBSTRUCTURE
     1 ****        1 TEMP              0 ****  ****    0 ROOT 
@<TRIPOS>NORMAL
@<TRIPOS>FF_PBC
FORCE_FIELD_SETUP_FEATURE Force Field Setup information
v1.0  0 0.000000 0.000000 0.000000 0.000000 0.000000 0.000000 NONE 0 0 0 0 1 0 0 0 0 0 0 0 0
