@<TRIPOS>MOLECULE
MOL001217
   34    35     1     1     0
SMALL
GASTEIGER


@<TRIPOS>ATOM
      1 C          -0.402919    0.294448   -0.147688 C.3       1 <1>         0.000147 
      2 C           1.146042    0.064048   -0.187804 C.3       1 <1>         0.074168 
      3 C           1.239147   -1.488412   -0.153707 C.3       1 <1>        -0.022132 
      4 C          -0.250271   -1.925211   -0.090698 C.3       1 <1>        -0.032912 
      5 C          -0.759376   -1.590139    1.340570 C.3       1 <1>        -0.049032 
      6 C          -0.872719   -0.041081    1.299739 C.3       1 <1>        -0.044479 
      7 C          -0.971128   -0.887641   -0.992422 C.3       1 <1>        -0.024220 
      8 C          -2.529047   -1.049309   -1.005045 C.3       1 <1>        -0.058979 
      9 C          -0.531566   -0.918025   -2.494554 C.3       1 <1>        -0.058979 
     10 C          -0.863666    1.703103   -0.604257 C.3       1 <1>        -0.056682 
     11 C           2.098991    1.903692    0.930055 C.2       1 <1>         0.259313 
     12 C           2.695582    2.455303    2.194053 C.3       1 <1>         0.021443 
     13 O           1.884359    2.622857   -0.032948 O.2       1 <1>        -0.265274 
     14 O           1.867028    0.583745    0.952555 O.3       1 <1>        -0.311511 
     15 H           1.605795    0.438402   -1.117986 H         1 <1>         0.060766 
     16 H           1.732177   -1.899737   -1.048658 H         1 <1>         0.029330 
     17 H           1.814529   -1.851258    0.712750 H         1 <1>         0.029330 
     18 H          -0.405458   -2.979880   -0.371241 H         1 <1>         0.030693 
     19 H          -1.730513   -2.071027    1.537593 H         1 <1>         0.026830 
     20 H          -0.067441   -1.936985    2.125134 H         1 <1>         0.026830 
     21 H          -0.252076    0.442064    2.070134 H         1 <1>         0.027158 
     22 H          -1.904136    0.298646    1.479932 H         1 <1>         0.027158 
     23 H          -2.780607   -2.036199   -1.422607 H         1 <1>         0.023525 
     24 H          -2.988834   -0.285537   -1.649704 H         1 <1>         0.023525 
     25 H          -3.031522   -0.980428   -0.034470 H         1 <1>         0.023525 
     26 H          -0.846769   -1.872629   -2.942839 H         1 <1>         0.023525 
     27 H          -1.027823   -0.103286   -3.042984 H         1 <1>         0.023525 
     28 H           0.540626   -0.817758   -2.692718 H         1 <1>         0.023525 
     29 H          -0.422967    1.957682   -1.579358 H         1 <1>         0.023604 
     30 H          -0.565163    2.459925    0.134642 H         1 <1>         0.023604 
     31 H          -1.958660    1.740581   -0.692536 H         1 <1>         0.023604 
     32 H           2.197831    2.010412    3.068652 H         1 <1>         0.033023 
     33 H           2.573046    3.548055    2.232779 H         1 <1>         0.033023 
     34 H           3.767408    2.211479    2.225435 H         1 <1>         0.033023 
@<TRIPOS>BOND
     1    2    1 1    
     2    1    6 1    
     3    1    7 1    
     4    1   10 1    
     5    2    3 1    
     6   14    2 1    
     7    2   15 1    
     8    3    4 1    
     9    3   16 1    
    10    3   17 1    
    11    4    5 1    
    12    4    7 1    
    13    4   18 1    
    14    6    5 1    
    15    5   19 1    
    16    5   20 1    
    17    6   21 1    
    18    6   22 1    
    19    7    8 1    
    20    7    9 1    
    21    8   23 1    
    22    8   24 1    
    23    8   25 1    
    24    9   26 1    
    25    9   27 1    
    26    9   28 1    
    27   10   29 1    
    28   10   30 1    
    29   10   31 1    
    30   11   12 1    
    31   11   13 2    
    32   11   14 1    
    33   12   32 1    
    34   12   33 1    
    35   12   34 1    
@<TRIPOS>SUBSTRUCTURE
     1 ****       11 TEMP              0 ****  ****    0 ROOT 
@<TRIPOS>NORMAL
@<TRIPOS>FF_PBC
FORCE_FIELD_SETUP_FEATURE Force Field Setup information
v1.0  0 0.000000 0.000000 0.000000 0.000000 0.000000 0.000000 NONE 0 0 0 0 1 0 0 0 0 0 0 0 0
