@<TRIPOS>MOLECULE
MOL001924
   62    67     1     1     0
SMALL
GASTEIGER


@<TRIPOS>ATOM
      1 O           1.033462    1.853238   -1.521993 O.3       1 <1>        -0.341257 
      2 O          -1.221045    2.478902   -1.387389 O.3       1 <1>        -0.319183 
      3 O           1.963879    0.894175    1.479693 O.3       1 <1>        -0.338511 
      4 O          -1.911176    4.434219   -0.245324 O.3       1 <1>        -0.364049 
      5 O          -2.169737   -0.237067    0.446109 O.3       1 <1>        -0.310595 
      6 O           1.900425   -0.455660   -0.458719 O.3       1 <1>        -0.340511 
      7 O           4.031902   -0.742722    2.568411 O.3       1 <1>        -0.384104 
      8 O           4.232895   -3.369343    1.447505 O.3       1 <1>        -0.386401 
      9 O          -2.222863   -2.284403    1.349354 O.2       1 <1>        -0.259226 
     10 O           3.781260   -3.524189   -1.454056 O.3       1 <1>        -0.386488 
     11 O           0.389000   -2.352223   -1.865434 O.3       1 <1>        -0.392366 
     12 C          -0.273393    1.184922    0.285864 C.3       1 <1>         0.085034 
     13 C           1.047575    1.792520    0.814697 C.3       1 <1>         0.114556 
     14 C          -0.987288    2.404776    0.912703 C.3       1 <1>         0.031032 
     15 C           1.426625    2.686448   -0.420911 C.3       1 <1>         0.104258 
     16 C           0.212529    2.558196    1.873614 C.3       1 <1>        -0.011576 
     17 C          -0.956098    3.370888   -0.300476 C.3       1 <1>         0.176637 
     18 C          -0.298514    1.391071   -1.239687 C.3       1 <1>         0.174031 
     19 C           0.476043    3.916459   -0.517845 C.3       1 <1>         0.033329 
     20 C          -0.782606   -0.174231    0.827018 C.3       1 <1>         0.070836 
     21 C           2.900425    3.147538   -0.542883 C.3       1 <1>        -0.032789 
     22 C           2.710938   -0.000042    0.635890 C.3       1 <1>         0.188670 
     23 C           3.166168   -1.194919    1.507285 C.3       1 <1>         0.134133 
     24 C          -2.803983   -1.363933    0.793121 C.2       1 <1>         0.293829 
     25 C           3.920634   -2.224409    0.630779 C.3       1 <1>         0.114062 
     26 C           2.568479   -1.367396   -1.349919 C.3       1 <1>         0.113005 
     27 C           3.052220   -2.630501   -0.588511 C.3       1 <1>         0.111896 
     28 C          -4.279972   -1.475084    0.483039 C.ar      1 <1>         0.046475 
     29 C           1.560057   -1.757047   -2.460880 C.3       1 <1>         0.073015 
     30 C          -5.021106   -2.598388    0.857011 C.ar      1 <1>        -0.048875 
     31 C          -4.953924   -0.361312   -0.230425 C.ar      1 <1>        -0.048875 
     32 C          -6.468872   -2.678574    0.546377 C.ar      1 <1>        -0.061020 
     33 C          -6.321888   -0.431021   -0.528535 C.ar      1 <1>        -0.061020 
     34 C          -7.102368   -1.625101   -0.128012 C.ar      1 <1>        -0.061719 
     35 H          -1.983795    2.215562    1.342214 H         1 <1>         0.036223 
     36 H           0.529198    3.571578    2.157641 H         1 <1>         0.029866 
     37 H           0.066720    1.955799    2.785828 H         1 <1>         0.029866 
     38 H          -0.583652    0.508909   -1.833002 H         1 <1>         0.091844 
     39 H           0.529645    4.368005   -1.522034 H         1 <1>         0.034596 
     40 H           0.729554    4.701025    0.209951 H         1 <1>         0.034596 
     41 H          -0.228183   -1.008360    0.374959 H         1 <1>         0.057419 
     42 H          -0.670966   -0.222599    1.921218 H         1 <1>         0.057419 
     43 H           3.533761    2.355890   -0.958087 H         1 <1>         0.025826 
     44 H           2.981494    4.001539   -1.231702 H         1 <1>         0.025826 
     45 H           3.280452    3.449804    0.443196 H         1 <1>         0.025826 
     46 H          -2.796646    4.087438   -0.247630 H         1 <1>         0.212768 
     47 H           3.621026    0.501646    0.286121 H         1 <1>         0.093762 
     48 H           2.256793   -1.659607    1.924713 H         1 <1>         0.067095 
     49 H           4.855818   -1.751839    0.283228 H         1 <1>         0.064758 
     50 H           3.428389   -0.857447   -1.815922 H         1 <1>         0.064668 
     51 H           2.173370   -3.174019   -0.204696 H         1 <1>         0.064673 
     52 H           4.320399   -1.465310    3.118287 H         1 <1>         0.210110 
     53 H           2.036967   -2.461750   -3.162932 H         1 <1>         0.058370 
     54 H           1.281231   -0.843105   -3.012569 H         1 <1>         0.058370 
     55 H           4.688355   -4.048355    0.958246 H         1 <1>         0.210005 
     56 H           4.569802   -3.140321   -1.824889 H         1 <1>         0.210004 
     57 H          -4.541669   -3.419319    1.379712 H         1 <1>         0.062527 
     58 H          -4.388400    0.516311   -0.524520 H         1 <1>         0.062527 
     59 H          -0.280030   -2.593961   -2.498712 H         1 <1>         0.209508 
     60 H          -7.036540   -3.555391    0.841818 H         1 <1>         0.061778 
     61 H          -6.810196    0.385527   -1.050941 H         1 <1>         0.061778 
     62 H          -8.160982   -1.681031   -0.358362 H         1 <1>         0.061759 
@<TRIPOS>BOND
     1   15    1 1    
     2    1   18 1    
     3   17    2 1    
     4   18    2 1    
     5    3   13 1    
     6   22    3 1    
     7   17    4 1    
     8    4   46 1    
     9   20    5 1    
    10    5   24 1    
    11    6   22 1    
    12   26    6 1    
    13   23    7 1    
    14    7   52 1    
    15   25    8 1    
    16    8   55 1    
    17   24    9 2    
    18   27   10 1    
    19   10   56 1    
    20   29   11 1    
    21   11   59 1    
    22   13   12 1    
    23   12   14 1    
    24   12   18 1    
    25   12   20 1    
    26   13   15 1    
    27   13   16 1    
    28   16   14 1    
    29   14   17 1    
    30   14   35 1    
    31   15   19 1    
    32   15   21 1    
    33   16   36 1    
    34   16   37 1    
    35   19   17 1    
    36   18   38 1    
    37   19   39 1    
    38   19   40 1    
    39   20   41 1    
    40   20   42 1    
    41   21   43 1    
    42   21   44 1    
    43   21   45 1    
    44   22   23 1    
    45   22   47 1    
    46   25   23 1    
    47   23   48 1    
    48   24   28 1    
    49   27   25 1    
    50   25   49 1    
    51   26   27 1    
    52   26   29 1    
    53   26   50 1    
    54   27   51 1    
    55   28   30 2    
    56   28   31 1    
    57   29   53 1    
    58   29   54 1    
    59   30   32 1    
    60   30   57 1    
    61   31   33 2    
    62   31   58 1    
    63   32   34 2    
    64   32   60 1    
    65   33   34 1    
    66   33   61 1    
    67   34   62 1    
@<TRIPOS>SUBSTRUCTURE
     1 ****        3 TEMP              0 ****  ****    0 ROOT 
@<TRIPOS>NORMAL
@<TRIPOS>FF_PBC
FORCE_FIELD_SETUP_FEATURE Force Field Setup information
v1.0  0 0.000000 0.000000 0.000000 0.000000 0.000000 0.000000 NONE 0 0 0 0 1 0 0 0 0 0 0 0 0
