@<TRIPOS>MOLECULE
MOL003786
   41    43     1     1     0
SMALL
GASTEIGER


@<TRIPOS>ATOM
      1 C           0.094266   -0.390803   -0.204091 C.3       1 <1>        -0.018190 
      2 C           1.230652    0.696747   -0.198677 C.3       1 <1>        -0.025905 
      3 C          -1.213671    0.440636   -0.019935 C.3       1 <1>        -0.031790 
      4 C           0.743323    1.514156    1.031401 C.3       1 <1>        -0.035074 
      5 C           0.196730   -1.387176    1.016584 C.3       1 <1>        -0.037452 
      6 C          -0.768396    1.736687    0.726539 C.3       1 <1>        -0.046087 
      7 C          -0.136895   -1.135114   -1.551524 C.3       1 <1>        -0.046117 
      8 C          -1.912307    0.589387   -1.413352 C.3       1 <1>        -0.040490 
      9 C           0.918496    0.735795    2.373427 C.3       1 <1>        -0.049438 
     10 C          -1.072443   -0.253057   -2.418393 C.3       1 <1>        -0.049655 
     11 C           0.177263   -0.632882    2.385872 C.3       1 <1>        -0.049663 
     12 C           2.702700    0.170047   -0.097645 C.3       1 <1>        -0.059036 
     13 C           1.272760    1.634037   -1.455307 C.3       1 <1>        -0.059036 
     14 C           1.267762   -2.523205    0.952294 C.3       1 <1>        -0.061885 
     15 C          -3.388674    0.092433   -1.378392 C.3       1 <1>        -0.062145 
     16 H          -1.940056   -0.081805    0.621271 H         1 <1>         0.030904 
     17 H           1.279266    2.474276    1.118657 H         1 <1>         0.030621 
     18 H          -0.734276   -1.984725    0.989801 H         1 <1>         0.030372 
     19 H          -1.343708    1.904978    1.651450 H         1 <1>         0.027102 
     20 H          -0.912552    2.636984    0.112080 H         1 <1>         0.027102 
     21 H          -0.678122   -2.077207   -1.366211 H         1 <1>         0.027103 
     22 H           0.803272   -1.382240   -2.068669 H         1 <1>         0.027103 
     23 H          -1.966846    1.640469   -1.743951 H         1 <1>         0.030097 
     24 H           1.980800    0.598648    2.615105 H         1 <1>         0.026819 
     25 H           0.523774    1.361125    3.192056 H         1 <1>         0.026819 
     26 H          -0.490303    0.392806   -3.090965 H         1 <1>         0.026811 
     27 H          -1.702372   -0.871981   -3.080371 H         1 <1>         0.026811 
     28 H          -0.866742   -0.429180    2.674382 H         1 <1>         0.026811 
     29 H           0.587482   -1.274130    3.182808 H         1 <1>         0.026811 
     30 H           3.426821    0.983752   -0.253677 H         1 <1>         0.023525 
     31 H           2.988809   -0.259269    0.859797 H         1 <1>         0.023525 
     32 H           2.879497   -0.589967   -0.872854 H         1 <1>         0.023525 
     33 H           1.952306    2.480741   -1.273439 H         1 <1>         0.023525 
     34 H           1.661144    1.088704   -2.328655 H         1 <1>         0.023525 
     35 H           0.321069    2.089493   -1.736584 H         1 <1>         0.023525 
     36 H           0.951760   -3.371779    1.582884 H         1 <1>         0.023259 
     37 H           1.382443   -2.900429   -0.074225 H         1 <1>         0.023259 
     38 H           2.251857   -2.240912    1.333330 H         1 <1>         0.023259 
     39 H          -3.864464    0.220287   -2.364190 H         1 <1>         0.023250 
     40 H          -3.966623    0.670190   -0.639802 H         1 <1>         0.023250 
     41 H          -3.433392   -0.974187   -1.107021 H         1 <1>         0.023250 
@<TRIPOS>BOND
     1    1    2 1    
     2    1    3 1    
     3    1    5 1    
     4    1    7 1    
     5    2    4 1    
     6    2   12 1    
     7    2   13 1    
     8    3    6 1    
     9    3    8 1    
    10    3   16 1    
    11    4    6 1    
    12    4    9 1    
    13    4   17 1    
    14    5   11 1    
    15    5   14 1    
    16    5   18 1    
    17    6   19 1    
    18    6   20 1    
    19    7   10 1    
    20    7   21 1    
    21    7   22 1    
    22    8   10 1    
    23    8   15 1    
    24    8   23 1    
    25    9   11 1    
    26    9   24 1    
    27    9   25 1    
    28   10   26 1    
    29   10   27 1    
    30   11   28 1    
    31   11   29 1    
    32   12   30 1    
    33   12   31 1    
    34   12   32 1    
    35   13   33 1    
    36   13   34 1    
    37   13   35 1    
    38   14   36 1    
    39   14   37 1    
    40   14   38 1    
    41   15   39 1    
    42   15   40 1    
    43   15   41 1    
@<TRIPOS>SUBSTRUCTURE
     1 ****        1 TEMP              0 ****  ****    0 ROOT 
@<TRIPOS>NORMAL
@<TRIPOS>FF_PBC
FORCE_FIELD_SETUP_FEATURE Force Field Setup information
v1.0  0 0.000000 0.000000 0.000000 0.000000 0.000000 0.000000 NONE 0 0 0 0 1 0 0 0 0 0 0 0 0
