@<TRIPOS>MOLECULE
MOL001314
   29    28     1     1     0
SMALL
GASTEIGER


@<TRIPOS>ATOM
      1 C           5.124714    0.181489   -0.000128 C.2       1 <1>         0.259588 
      2 C           3.849474   -0.623318    0.000265 C.3       1 <1>         0.033006 
      3 C           2.564955    0.250029   -0.000112 C.3       1 <1>        -0.044061 
      4 C           1.282856   -0.626771    0.000056 C.3       1 <1>        -0.052596 
      5 C           0.000001    0.248895   -0.000187 C.3       1 <1>        -0.053034 
      6 C          -1.282857   -0.626771    0.000056 C.3       1 <1>        -0.052596 
      7 C          -2.564956    0.250029   -0.000114 C.3       1 <1>        -0.044061 
      8 C          -3.849471   -0.623316    0.000265 C.3       1 <1>         0.033006 
      9 C          -5.124720    0.181485   -0.000128 C.2       1 <1>         0.259588 
     10 O           6.215497   -0.367686   -0.000802 O.2       1 <1>        -0.265177 
     11 O           4.997366    1.510378    0.000321 O.3       1 <1>        -0.331267 
     12 O          -6.215492   -0.367683   -0.000802 O.2       1 <1>        -0.265177 
     13 O          -4.997366    1.510379    0.000321 O.3       1 <1>        -0.331267 
     14 H           3.857963   -1.267251    0.893549 H         1 <1>         0.036600 
     15 H           3.857916   -1.268003   -0.892495 H         1 <1>         0.036600 
     16 H           2.566526    0.895180   -0.894421 H         1 <1>         0.027004 
     17 H           2.566388    0.895688    0.893829 H         1 <1>         0.027004 
     18 H           1.282806   -1.272643    0.893645 H         1 <1>         0.026540 
     19 H           1.282846   -1.273040   -0.893253 H         1 <1>         0.026540 
     20 H           0.000000    0.894928   -0.893621 H         1 <1>         0.026529 
     21 H           0.000000    0.895361    0.892963 H         1 <1>         0.026529 
     22 H          -1.282806   -1.272643    0.893645 H         1 <1>         0.026540 
     23 H          -1.282846   -1.273040   -0.893253 H         1 <1>         0.026540 
     24 H          -2.566525    0.895180   -0.894420 H         1 <1>         0.027004 
     25 H          -2.566388    0.895688    0.893829 H         1 <1>         0.027004 
     26 H          -3.857964   -1.267251    0.893549 H         1 <1>         0.036600 
     27 H          -3.857916   -1.268003   -0.892495 H         1 <1>         0.036600 
     28 H           5.842435    1.946456    0.000015 H         1 <1>         0.220208 
     29 H          -5.842435    1.946456    0.000015 H         1 <1>         0.220208 
@<TRIPOS>BOND
     1    1    2 1    
     2    1   10 2    
     3    1   11 1    
     4    2    3 1    
     5    2   14 1    
     6    2   15 1    
     7    3    4 1    
     8    3   16 1    
     9    3   17 1    
    10    4    5 1    
    11    4   18 1    
    12    4   19 1    
    13    5    6 1    
    14    5   20 1    
    15    5   21 1    
    16    6    7 1    
    17    6   22 1    
    18    6   23 1    
    19    7    8 1    
    20    7   24 1    
    21    7   25 1    
    22    8    9 1    
    23    8   26 1    
    24    8   27 1    
    25    9   12 2    
    26    9   13 1    
    27   11   28 1    
    28   13   29 1    
@<TRIPOS>SUBSTRUCTURE
     1 ****        1 TEMP              0 ****  ****    0 ROOT 
@<TRIPOS>NORMAL
@<TRIPOS>FF_PBC
FORCE_FIELD_SETUP_FEATURE Force Field Setup information
v1.0  0 0.000000 0.000000 0.000000 0.000000 0.000000 0.000000 NONE 0 0 0 0 1 0 0 0 0 0 0 0 0
