@<TRIPOS>MOLECULE
MOL000397
   20    20     1     1     0
SMALL
GASTEIGER


@<TRIPOS>ATOM
      1 C           0.998988    2.608307   -0.279589 C.2       1 <1>         0.284026 
      2 C           2.073262    1.722144    0.208649 C.2       1 <1>         0.010297 
      3 C           1.986523    0.407082    0.453949 C.2       1 <1>        -0.048941 
      4 O           1.121138    3.816023   -0.144066 O.2       1 <1>        -0.260082 
      5 O          -0.078912    2.096450   -0.877893 O.3       1 <1>        -0.327929 
      6 C           0.710787   -0.398031    0.338268 C.ar      1 <1>        -0.024694 
      7 C           0.746438   -1.708068   -0.355106 C.ar      1 <1>        -0.052160 
      8 C          -0.421602   -2.476973   -0.476894 C.ar      1 <1>        -0.031383 
      9 C          -1.703696   -1.991514    0.083998 C.ar      1 <1>         0.072617 
     10 C          -1.739826   -0.744127    0.753310 C.ar      1 <1>        -0.031383 
     11 C          -0.503360    0.062433    0.888348 C.ar      1 <1>        -0.052160 
     12 O          -2.850882   -2.776490   -0.059814 O.3       1 <1>        -0.359832 
     13 H           3.036584    2.207601    0.369943 H         1 <1>         0.067729 
     14 H           2.880434   -0.139757    0.757410 H         1 <1>         0.062525 
     15 H          -0.693532    2.767490   -1.153954 H         1 <1>         0.220537 
     16 H           1.680176   -2.072659   -0.770708 H         1 <1>         0.062423 
     17 H          -0.394495   -3.435195   -0.984547 H         1 <1>         0.064338 
     18 H          -2.666704   -0.367570    1.172021 H         1 <1>         0.064338 
     19 H          -0.540134    1.008010    1.418675 H         1 <1>         0.062423 
     20 H          -3.636331   -2.392876    0.313250 H         1 <1>         0.217313 
@<TRIPOS>BOND
     1    1    2 1    
     2    1    4 2    
     3    1    5 1    
     4    2    3 2    
     5    2   13 1    
     6    3    6 1    
     7    3   14 1    
     8    5   15 1    
     9    6    7 1    
    10    6   11 2    
    11    7    8 2    
    12    7   16 1    
    13    8    9 1    
    14    8   17 1    
    15    9   10 2    
    16    9   12 1    
    17   10   11 1    
    18   10   18 1    
    19   11   19 1    
    20   12   20 1    
@<TRIPOS>SUBSTRUCTURE
     1 ****        1 TEMP              0 ****  ****    0 ROOT 
@<TRIPOS>NORMAL
@<TRIPOS>FF_PBC
FORCE_FIELD_SETUP_FEATURE Force Field Setup information
v1.0  0 0.000000 0.000000 0.000000 0.000000 0.000000 0.000000 NONE 0 0 0 0 1 0 0 0 0 0 0 0 0
