@<TRIPOS>MOLECULE
MOL001926
   84    87     1     1     0
SMALL
GASTEIGER


@<TRIPOS>ATOM
      1 O           2.103388    0.094605    0.781765 O.2       1 <1>        -0.284888 
      2 C           1.280841   -0.477154    0.090772 C.2       1 <1>         0.245278 
      3 C           1.756217   -1.210864   -1.158236 C.3       1 <1>         0.232393 
      4 O           2.774149   -2.125134   -0.694585 O.3       1 <1>        -0.370773 
      5 C           2.431075   -0.303308   -2.253904 C.3       1 <1>         0.199805 
      6 O           2.702628   -1.266370   -3.309694 O.3       1 <1>        -0.375004 
      7 C           1.624497    0.916813   -2.857897 C.3       1 <1>         0.123369 
      8 O           2.520395    2.046761   -2.808317 O.3       1 <1>        -0.385684 
      9 C           0.230427    1.340357   -2.282894 C.3       1 <1>         0.117274 
     10 O          -0.803262    0.366975   -2.491824 O.3       1 <1>        -0.386097 
     11 C          -0.388484    2.543029   -3.055730 C.3       1 <1>         0.145733 
     12 O           0.580782    3.607074   -3.175041 O.3       1 <1>        -0.381238 
     13 C          -1.625658    3.046802   -2.331527 C.2       1 <1>         0.194135 
     14 C          -2.805342    2.181305   -1.933091 C.ar      1 <1>         0.025141 
     15 C          -3.349334    1.097279   -2.792289 C.ar      1 <1>        -0.018668 
     16 C          -4.428492    0.301232   -2.350297 C.ar      1 <1>         0.105443 
     17 O          -4.924543   -0.717715   -3.168123 O.3       1 <1>        -0.357200 
     18 C          -5.039529    0.554500   -1.022641 C.ar      1 <1>         0.132455 
     19 O          -6.094221   -0.253522   -0.590158 O.3       1 <1>        -0.355395 
     20 C          -4.552365    1.605284   -0.219683 C.ar      1 <1>         0.105443 
     21 O          -5.137893    1.864049    1.018071 O.3       1 <1>        -0.357200 
     22 C          -3.411134    2.427551   -0.684536 C.ar      1 <1>        -0.018668 
     23 O          -1.674202    4.227995   -2.032430 O.2       1 <1>        -0.289189 
     24 C           3.844336    0.117797   -1.852484 C.2       1 <1>         0.201018 
     25 C           4.261687    0.535064   -0.460886 C.ar      1 <1>         0.025571 
     26 C           5.038045   -0.429091    0.351011 C.ar      1 <1>        -0.018657 
     27 C           5.400185   -0.119521    1.661344 C.ar      1 <1>         0.105443 
     28 O           6.129448   -1.046294    2.405969 O.3       1 <1>        -0.357200 
     29 C           5.010279    1.184654    2.253278 C.ar      1 <1>         0.132455 
     30 O           5.342844    1.460507    3.583817 O.3       1 <1>        -0.355395 
     31 C           4.306619    2.131950    1.469693 C.ar      1 <1>         0.105443 
     32 O           3.966936    3.365082    2.037314 O.3       1 <1>        -0.357200 
     33 C           3.932101    1.798822    0.071923 C.ar      1 <1>        -0.018657 
     34 O           4.728534    0.093785   -2.691676 O.2       1 <1>        -0.288740 
     35 C           0.660422   -2.066109   -1.773440 C.2       1 <1>         0.205905 
     36 C          -0.104635   -3.131292   -1.017903 C.ar      1 <1>         0.025939 
     37 C          -1.320100   -3.694895   -1.658024 C.ar      1 <1>        -0.018645 
     38 C          -2.093973   -4.653696   -1.008985 C.ar      1 <1>         0.105443 
     39 O          -3.236416   -5.144700   -1.639492 O.3       1 <1>        -0.357200 
     40 C          -1.698958   -5.137797    0.336636 C.ar      1 <1>         0.132455 
     41 O          -2.484128   -6.100150    0.977815 O.3       1 <1>        -0.355395 
     42 C          -0.535936   -4.625524    0.955098 C.ar      1 <1>         0.105443 
     43 O          -0.171485   -5.104231    2.218695 O.3       1 <1>        -0.357200 
     44 C           0.275657   -3.590272    0.265143 C.ar      1 <1>        -0.018645 
     45 O           0.338987   -1.889809   -2.937894 O.2       1 <1>        -0.288354 
     46 C          -0.113734   -0.378437    0.575461 C.2       1 <1>         0.231774 
     47 C          -0.490218    0.245852    1.906010 C.ar      1 <1>         0.030332 
     48 C           0.436528    0.375556    3.064502 C.ar      1 <1>        -0.018316 
     49 C           0.029933    1.023016    4.240623 C.ar      1 <1>         0.105454 
     50 O           0.926244    1.134624    5.303679 O.3       1 <1>        -0.357200 
     51 C          -1.342404    1.574331    4.356416 C.ar      1 <1>         0.132456 
     52 O          -1.724427    2.232224    5.530955 O.3       1 <1>        -0.355395 
     53 C          -2.246858    1.423874    3.283917 C.ar      1 <1>         0.105454 
     54 O          -3.545455    1.928484    3.403342 O.3       1 <1>        -0.357200 
     55 C          -1.804961    0.738646    2.045463 C.ar      1 <1>        -0.018316 
     56 O          -1.016301   -0.776654   -0.143953 O.2       1 <1>        -0.283445 
     57 H           3.155032   -2.637675   -1.403567 H         1 <1>         0.211434 
     58 H           3.233555   -0.918255   -4.021340 H         1 <1>         0.210997 
     59 H           1.427286    0.679765   -3.915640 H         1 <1>         0.065481 
     60 H           2.181619    2.837197   -3.222123 H         1 <1>         0.210034 
     61 H           0.343375    1.668875   -1.238500 H         1 <1>         0.065067 
     62 H          -0.956284   -0.253296   -1.792392 H         1 <1>         0.210019 
     63 H          -0.675651    2.221623   -4.070312 H         1 <1>         0.070354 
     64 H           0.206363    4.393348   -3.567363 H         1 <1>         0.210482 
     65 H          -2.922364    0.907558   -3.769812 H         1 <1>         0.065104 
     66 H          -5.680818   -1.152468   -2.779657 H         1 <1>         0.217423 
     67 H          -6.396238   -0.022301    0.282318 H         1 <1>         0.217501 
     68 H          -5.468652    2.757982    1.043657 H         1 <1>         0.217423 
     69 H          -3.036002    3.216974   -0.042381 H         1 <1>         0.065104 
     70 H           5.327668   -1.384977   -0.074345 H         1 <1>         0.065104 
     71 H           6.272867   -0.739407    3.294313 H         1 <1>         0.217423 
     72 H           4.981456    2.291760    3.877552 H         1 <1>         0.217501 
     73 H           3.441444    3.918313    1.470699 H         1 <1>         0.217423 
     74 H           3.393681    2.519472   -0.528792 H         1 <1>         0.065104 
     75 H          -1.629059   -3.362941   -2.643695 H         1 <1>         0.065104 
     76 H          -3.692969   -5.776857   -1.095075 H         1 <1>         0.217423 
     77 H          -2.125000   -6.334217    1.828611 H         1 <1>         0.217501 
     78 H           0.662050   -4.770359    2.534155 H         1 <1>         0.217423 
     79 H           1.153352   -3.194295    0.760415 H         1 <1>         0.065104 
     80 H           1.438626   -0.030789    3.036309 H         1 <1>         0.065114 
     81 H           0.523910    1.549336    6.060920 H         1 <1>         0.217423 
     82 H          -2.610057    2.578964    5.470004 H         1 <1>         0.217501 
     83 H          -4.138869    1.614726    2.726407 H         1 <1>         0.217423 
     84 H          -2.505572    0.625147    1.228819 H         1 <1>         0.065114 
@<TRIPOS>BOND
     1    1    2 2    
     2    2    3 1    
     3    2   46 1    
     4    3    4 1    
     5    3    5 1    
     6    3   35 1    
     7    4   57 1    
     8    5    6 1    
     9    5    7 1    
    10    5   24 1    
    11    6   58 1    
    12    7    8 1    
    13    7    9 1    
    14    7   59 1    
    15    8   60 1    
    16    9   10 1    
    17    9   11 1    
    18    9   61 1    
    19   10   62 1    
    20   11   12 1    
    21   11   13 1    
    22   11   63 1    
    23   12   64 1    
    24   13   14 1    
    25   13   23 2    
    26   14   15 1    
    27   14   22 2    
    28   15   16 2    
    29   15   65 1    
    30   16   17 1    
    31   16   18 1    
    32   17   66 1    
    33   18   19 1    
    34   18   20 2    
    35   19   67 1    
    36   20   21 1    
    37   20   22 1    
    38   21   68 1    
    39   22   69 1    
    40   24   25 1    
    41   24   34 2    
    42   25   26 1    
    43   25   33 2    
    44   26   27 2    
    45   26   70 1    
    46   27   28 1    
    47   27   29 1    
    48   28   71 1    
    49   29   30 1    
    50   29   31 2    
    51   30   72 1    
    52   31   32 1    
    53   31   33 1    
    54   32   73 1    
    55   33   74 1    
    56   35   36 1    
    57   35   45 2    
    58   36   37 1    
    59   36   44 2    
    60   37   38 2    
    61   37   75 1    
    62   38   39 1    
    63   38   40 1    
    64   39   76 1    
    65   40   41 1    
    66   40   42 2    
    67   41   77 1    
    68   42   43 1    
    69   42   44 1    
    70   43   78 1    
    71   44   79 1    
    72   46   47 1    
    73   46   56 2    
    74   47   48 1    
    75   47   55 2    
    76   48   49 2    
    77   48   80 1    
    78   49   50 1    
    79   49   51 1    
    80   50   81 1    
    81   51   52 1    
    82   51   53 2    
    83   52   82 1    
    84   53   54 1    
    85   53   55 1    
    86   54   83 1    
    87   55   84 1    
@<TRIPOS>SUBSTRUCTURE
     1 ****        1 TEMP              0 ****  ****    0 ROOT 
@<TRIPOS>NORMAL
@<TRIPOS>FF_PBC
FORCE_FIELD_SETUP_FEATURE Force Field Setup information
v1.0  0 0.000000 0.000000 0.000000 0.000000 0.000000 0.000000 NONE 0 0 0 0 1 0 0 0 0 0 0 0 0
