@<TRIPOS>MOLECULE
MOL004868
   56    58     1     1     0
SMALL
GASTEIGER


@<TRIPOS>ATOM
      1 C          -0.856429    3.893244    0.135109 C.ar      1 <1>         0.091776 
      2 C           0.148780    2.806047    0.062855 C.ar      1 <1>         0.082223 
      3 C          -0.239249    1.476317   -0.099433 C.ar      1 <1>         0.098822 
      4 C          -1.677378    1.150991   -0.246874 C.ar      1 <1>        -0.000253 
      5 C          -2.646518    2.171421   -0.176324 C.ar      1 <1>         0.080983 
      6 C          -2.222131    3.578115    0.066110 C.ar      1 <1>         0.016576 
      7 C           1.624204    3.068601    0.171397 C.2       1 <1>         0.193518 
      8 C           2.516096    1.908047    0.191457 C.2       1 <1>         0.016919 
      9 C           2.034189    0.665260    0.053356 C.2       1 <1>         0.093873 
     10 O           0.714821    0.452156   -0.119782 O.3       1 <1>        -0.307711 
     11 C           2.914443   -0.571928    0.090454 C.ar      1 <1>         0.006017 
     12 C          -3.198120    4.752386    0.235710 C.3       1 <1>        -0.004339 
     13 C          -4.641002    4.452828    0.575383 C.2       1 <1>        -0.080815 
     14 C          -5.656653    5.258729    0.225844 C.2       1 <1>        -0.079306 
     15 C          -7.098056    4.885264    0.491680 C.3       1 <1>        -0.044040 
     16 C          -5.440978    6.590255   -0.460426 C.3       1 <1>        -0.044040 
     17 O          -4.001266    1.876046   -0.348431 O.3       1 <1>        -0.359385 
     18 O          -0.463160    5.226507    0.281536 O.3       1 <1>        -0.358673 
     19 O           2.059006    4.207345    0.242321 O.2       1 <1>        -0.287017 
     20 C           2.248475   -1.892682   -0.038651 C.ar      1 <1>        -0.046193 
     21 C           2.968635   -3.096081    0.016207 C.ar      1 <1>        -0.013299 
     22 C           4.437906   -3.057683    0.236315 C.ar      1 <1>         0.076073 
     23 C           5.085733   -1.815397    0.322886 C.ar      1 <1>        -0.031026 
     24 C           4.314968   -0.553186    0.244566 C.ar      1 <1>        -0.049664 
     25 O           5.161361   -4.247912    0.369054 O.3       1 <1>        -0.359551 
     26 C           2.184848   -4.407831   -0.149276 C.3       1 <1>        -0.006792 
     27 C           2.981048   -5.580885   -0.665904 C.2       1 <1>        -0.080898 
     28 C           2.664833   -6.860387   -0.414180 C.2       1 <1>        -0.079307 
     29 H          -1.967119    0.118594   -0.418435 H         1 <1>         0.066956 
     30 H           3.562750    2.158344    0.329026 H         1 <1>         0.068219 
     31 H          -2.825987    5.400472    1.044801 H         1 <1>         0.035721 
     32 H          -3.119208    5.291619   -0.719649 H         1 <1>         0.035721 
     33 H          -4.852794    3.544345    1.136973 H         1 <1>         0.057473 
     34 H          -7.583487    5.657956    1.104488 H         1 <1>         0.027427 
     35 H          -7.205151    3.919702    1.006791 H         1 <1>         0.027427 
     36 H          -7.623118    4.816866   -0.473273 H         1 <1>         0.027427 
     37 H          -6.253548    7.289832   -0.218431 H         1 <1>         0.027427 
     38 H          -5.421430    6.435869   -1.548245 H         1 <1>         0.027427 
     39 H          -4.505099    7.076551   -0.148141 H         1 <1>         0.027427 
     40 H          -4.202925    0.959403   -0.504690 H         1 <1>         0.217328 
     41 H           0.422953    5.382821   -0.030104 H         1 <1>         0.217354 
     42 H           1.173726   -1.932230   -0.180356 H         1 <1>         0.062784 
     43 H           6.161672   -1.763644    0.459936 H         1 <1>         0.064348 
     44 H           4.875945    0.367312    0.322452 H         1 <1>         0.062503 
     45 H           6.092938   -4.134361    0.521385 H         1 <1>         0.217325 
     46 H           1.778897   -4.618236    0.851480 H         1 <1>         0.035640 
     47 H           1.346826   -4.257661   -0.849347 H         1 <1>         0.035640 
     48 H           3.854582   -5.363028   -1.279000 H         1 <1>         0.057472 
     49 C           1.402315   -7.273612    0.310464 C.3       1 <1>        -0.044040 
     50 C           3.571877   -7.993026   -0.842657 C.3       1 <1>        -0.044040 
     51 H           4.538502   -7.639509   -1.234766 H         1 <1>         0.027427 
     52 H           3.080577   -8.599159   -1.617642 H         1 <1>         0.027427 
     53 H           3.779317   -8.632691    0.029424 H         1 <1>         0.027427 
     54 H           0.588194   -6.545255    0.189019 H         1 <1>         0.027427 
     55 H           1.033902   -8.228707   -0.092194 H         1 <1>         0.027427 
     56 H           1.615240   -7.401751    1.381250 H         1 <1>         0.027427 
@<TRIPOS>BOND
     1    1    2 1    
     2    1    6 2    
     3    1   18 1    
     4    2    3 2    
     5    2    7 1    
     6    3    4 1    
     7    3   10 1    
     8    4    5 2    
     9    4   29 1    
    10    5    6 1    
    11    5   17 1    
    12    6   12 1    
    13    7    8 1    
    14    7   19 2    
    15    8    9 2    
    16    8   30 1    
    17    9   10 1    
    18    9   11 1    
    19   11   20 1    
    20   11   24 2    
    21   12   13 1    
    22   12   31 1    
    23   12   32 1    
    24   13   14 2    
    25   13   33 1    
    26   14   15 1    
    27   14   16 1    
    28   15   34 1    
    29   15   35 1    
    30   15   36 1    
    31   16   37 1    
    32   16   38 1    
    33   16   39 1    
    34   17   40 1    
    35   18   41 1    
    36   20   21 2    
    37   20   42 1    
    38   21   22 1    
    39   21   26 1    
    40   22   23 2    
    41   22   25 1    
    42   23   24 1    
    43   23   43 1    
    44   24   44 1    
    45   25   45 1    
    46   26   27 1    
    47   26   46 1    
    48   26   47 1    
    49   27   28 2    
    50   27   48 1    
    51   28   49 1    
    52   28   50 1    
    53   49   54 1    
    54   49   55 1    
    55   49   56 1    
    56   50   51 1    
    57   50   52 1    
    58   50   53 1    
@<TRIPOS>SUBSTRUCTURE
     1 ****        1 TEMP              0 ****  ****    0 ROOT 
@<TRIPOS>NORMAL
@<TRIPOS>FF_PBC
FORCE_FIELD_SETUP_FEATURE Force Field Setup information
v1.0  0 0.000000 0.000000 0.000000 0.000000 0.000000 0.000000 NONE 0 0 0 0 1 0 0 0 0 0 0 0 0
