@<TRIPOS>MOLECULE
MOL001223
   27    27     1     1     0
SMALL
GASTEIGER


@<TRIPOS>ATOM
      1 C           0.830473   -0.050787    0.502179 C.3       1 <1>        -0.022382 
      2 C          -0.556348    0.408238   -0.053766 C.3       1 <1>        -0.010677 
      3 C           1.065969   -1.477421   -0.065028 C.3       1 <1>        -0.030504 
      4 C           2.024799    0.903156    0.228754 C.3       1 <1>         0.006662 
      5 C          -1.216447   -0.946779   -0.151789 C.2       1 <1>        -0.070601 
      6 C          -1.278183    1.393806    0.907449 C.3       1 <1>        -0.055831 
      7 C          -0.464765    1.016454   -1.482008 C.3       1 <1>        -0.055831 
      8 C          -0.349650   -1.960623   -0.171288 C.2       1 <1>        -0.084207 
      9 C           3.263934    0.391464    0.917261 C.2       1 <1>         0.120606 
     10 C          -2.719209   -1.061918   -0.225597 C.3       1 <1>        -0.043268 
     11 O           4.230534    0.027791    0.267245 O.2       1 <1>        -0.301025 
     12 H           0.724582   -0.158315    1.596867 H         1 <1>         0.031589 
     13 H           1.677321   -2.099888    0.608173 H         1 <1>         0.031044 
     14 H           1.520878   -1.465686   -1.067533 H         1 <1>         0.031044 
     15 H           2.224354    0.981874   -0.850935 H         1 <1>         0.034177 
     16 H           1.802199    1.909499    0.615015 H         1 <1>         0.034177 
     17 H          -2.258087    1.683966    0.499290 H         1 <1>         0.023812 
     18 H          -1.437432    0.933154    1.894361 H         1 <1>         0.023812 
     19 H          -0.676699    2.305372    1.038902 H         1 <1>         0.023812 
     20 H           0.057949    1.984193   -1.459336 H         1 <1>         0.023812 
     21 H          -1.470703    1.191357   -1.891068 H         1 <1>         0.023812 
     22 H           0.069338    0.340620   -2.166847 H         1 <1>         0.023812 
     23 H          -0.625410   -3.011532   -0.256449 H         1 <1>         0.057180 
     24 H           3.310673    0.335483    2.004839 H         1 <1>         0.102618 
     25 H          -3.019938   -2.107235   -0.392001 H         1 <1>         0.027453 
     26 H          -3.169946   -0.721580    0.718003 H         1 <1>         0.027453 
     27 H          -3.114455   -0.454448   -1.052146 H         1 <1>         0.027453 
@<TRIPOS>BOND
     1    1    2 1    
     2    1    3 1    
     3    1    4 1    
     4    1   12 1    
     5    2    5 1    
     6    2    6 1    
     7    2    7 1    
     8    3    8 1    
     9    3   13 1    
    10    3   14 1    
    11    4    9 1    
    12    4   15 1    
    13    4   16 1    
    14    5    8 2    
    15    5   10 1    
    16    6   17 1    
    17    6   18 1    
    18    6   19 1    
    19    7   20 1    
    20    7   21 1    
    21    7   22 1    
    22    8   23 1    
    23    9   11 2    
    24    9   24 1    
    25   10   25 1    
    26   10   26 1    
    27   10   27 1    
@<TRIPOS>SUBSTRUCTURE
     1 ****        1 TEMP              0 ****  ****    0 ROOT 
@<TRIPOS>NORMAL
@<TRIPOS>FF_PBC
FORCE_FIELD_SETUP_FEATURE Force Field Setup information
v1.0  0 0.000000 0.000000 0.000000 0.000000 0.000000 0.000000 NONE 0 0 0 0 1 0 0 0 0 0 0 0 0
