@<TRIPOS>MOLECULE
MOL006965
  125   125     1     1     0
SMALL
GASTEIGER


@<TRIPOS>ATOM
      1 C          -0.354564    0.843774   -1.210839 C.2       1 <1>         0.242019 
      2 C          -1.569924    0.135415   -1.774301 C.3       1 <1>         0.130868 
      3 C          -2.782049    1.104040   -1.900985 C.3       1 <1>        -0.018274 
      4 C          -4.114266    0.380532   -2.247296 C.3       1 <1>        -0.050258 
      5 C          -5.323257    1.354189   -2.176533 C.3       1 <1>        -0.052965 
      6 C          -6.656432    0.623647   -2.497155 C.3       1 <1>        -0.053056 
      7 C          -7.873732    1.580172   -2.369788 C.3       1 <1>        -0.053057 
      8 C          -9.207845    0.838732   -2.659133 C.3       1 <1>        -0.053057 
      9 C         -10.429529    1.782866   -2.488662 C.3       1 <1>        -0.053057 
     10 C         -11.764622    1.035083   -2.755930 C.3       1 <1>        -0.053057 
     11 C         -12.987592    1.971554   -2.555236 C.3       1 <1>        -0.053057 
     12 C         -14.323888    1.221127   -2.808702 C.3       1 <1>        -0.053057 
     13 C         -15.546197    2.154278   -2.589203 C.3       1 <1>        -0.053065 
     14 C         -16.884044    1.403947   -2.834225 C.3       1 <1>        -0.053306 
     15 C         -18.104863    2.336649   -2.606575 C.3       1 <1>        -0.055911 
     16 C         -19.441024    1.586747   -2.847009 C.3       1 <1>        -0.065276 
     17 O          -0.355151    2.060749   -1.112401 O.2       1 <1>        -0.272971 
     18 N           0.694121    0.079976   -0.823853 N.am      1 <1>        -0.305338 
     19 C           1.523623    0.658109    1.387754 C.3       1 <1>         0.071810 
     20 C           1.839257    0.672557   -0.131181 C.3       1 <1>         0.076004 
     21 C           3.111955   -0.150248   -0.474277 C.3       1 <1>         0.093771 
     22 C           4.327174    0.371935    0.257168 C.2       1 <1>        -0.057979 
     23 C           5.184827    1.248331   -0.283024 C.2       1 <1>        -0.085181 
     24 C           6.405052    1.764347    0.444482 C.3       1 <1>        -0.031246 
     25 C           7.691384    1.313282   -0.294758 C.3       1 <1>        -0.031325 
     26 C           8.922232    1.805379    0.433902 C.2       1 <1>        -0.087643 
     27 C           9.987545    1.057273    0.758510 C.2       1 <1>        -0.087922 
     28 C          10.136743   -0.409151    0.424212 C.3       1 <1>        -0.034761 
     29 C          11.576054   -0.925551    0.696516 C.3       1 <1>        -0.049616 
     30 C          11.721462   -2.425802    0.319822 C.3       1 <1>        -0.052779 
     31 C          13.165249   -2.938809    0.575830 C.3       1 <1>        -0.053048 
     32 C          13.311053   -4.434824    0.183395 C.3       1 <1>        -0.053057 
     33 C          14.757696   -4.946535    0.424797 C.3       1 <1>        -0.053065 
     34 C          14.903805   -6.439950    0.023079 C.3       1 <1>        -0.053306 
     35 C          16.351357   -6.950426    0.259504 C.3       1 <1>        -0.055911 
     36 C          16.496793   -8.440431   -0.145660 C.3       1 <1>        -0.065276 
     37 O           0.310769    1.407034    1.604449 O.3       1 <1>        -0.346768 
     38 O           0.895785    1.865952    3.832545 O.3       1 <1>        -0.340533 
     39 C          -0.152637    1.386070    2.966981 C.3       1 <1>         0.187981 
     40 C          -1.398813    2.302931    3.071509 C.3       1 <1>         0.134112 
     41 C          -1.911991    2.261658    4.533863 C.3       1 <1>         0.114061 
     42 C          -0.776856    2.720065    5.488045 C.3       1 <1>         0.111896 
     43 C           0.530660    1.911062    5.228563 C.3       1 <1>         0.113005 
     44 C           0.527105    0.501749    5.882362 C.3       1 <1>         0.073015 
     45 O           0.373658    0.650682    7.307278 O.3       1 <1>        -0.392366 
     46 O          -0.586905    4.136392    5.285220 O.3       1 <1>        -0.386488 
     47 O          -2.376414    0.927665    4.823945 O.3       1 <1>        -0.386401 
     48 O          -1.065600    3.644725    2.654397 O.3       1 <1>        -0.384104 
     49 O           2.884786   -1.524689   -0.110719 O.3       1 <1>        -0.385850 
     50 O          -1.204024   -0.449441   -3.041004 O.3       1 <1>        -0.382571 
     51 H          -1.824756   -0.657766   -1.050742 H         1 <1>         0.069005 
     52 H          -2.911849    1.615398   -0.932392 H         1 <1>         0.029483 
     53 H          -2.559399    1.864789   -2.666533 H         1 <1>         0.029483 
     54 H          -4.063933   -0.044127   -3.262290 H         1 <1>         0.026620 
     55 H          -4.277401   -0.443320   -1.533261 H         1 <1>         0.026620 
     56 H          -5.384961    1.784333   -1.163208 H         1 <1>         0.026530 
     57 H          -5.173485    2.178943   -2.892754 H         1 <1>         0.026530 
     58 H          -6.615000    0.216846   -3.520981 H         1 <1>         0.026528 
     59 H          -6.785416   -0.217665   -1.796440 H         1 <1>         0.026528 
     60 H          -7.904085    1.993310   -1.348083 H         1 <1>         0.026528 
     61 H          -7.757864    2.417556   -3.077449 H         1 <1>         0.026528 
     62 H          -9.190743    0.442748   -3.687867 H         1 <1>         0.026528 
     63 H          -9.308962   -0.010923   -1.963950 H         1 <1>         0.026528 
     64 H         -10.437944    2.182823   -1.461309 H         1 <1>         0.026528 
     65 H         -10.337497    2.630049   -3.188123 H         1 <1>         0.026528 
     66 H         -11.765669    0.647266   -3.787921 H         1 <1>         0.026528 
     67 H         -11.846859    0.179513   -2.065522 H         1 <1>         0.026528 
     68 H         -12.980746    2.361462   -1.523971 H         1 <1>         0.026528 
     69 H         -12.910772    2.825890   -3.247801 H         1 <1>         0.026528 
     70 H         -14.336920    0.838403   -3.842538 H         1 <1>         0.026528 
     71 H         -14.395096    0.361918   -2.121588 H         1 <1>         0.026528 
     72 H         -15.529569    2.538492   -1.555943 H         1 <1>         0.026528 
     73 H         -15.477894    3.012553   -3.277783 H         1 <1>         0.026528 
     74 H         -16.904645    1.022575   -3.868459 H         1 <1>         0.026520 
     75 H         -16.951159    0.543934   -2.147690 H         1 <1>         0.026520 
     76 H         -18.088959    2.720175   -1.572660 H         1 <1>         0.026265 
     77 H         -18.045605    3.196755   -3.294279 H         1 <1>         0.026265 
     78 H         -20.292058    2.266003   -2.680308 H         1 <1>         0.022978 
     79 H         -19.490313    1.210948   -3.880880 H         1 <1>         0.022978 
     80 H         -19.533136    0.734286   -2.155977 H         1 <1>         0.022978 
     81 H           0.677698   -0.916528   -0.931952 H         1 <1>         0.149235 
     82 H           1.402880   -0.387475    1.712724 H         1 <1>         0.058014 
     83 H           2.348921    1.119263    1.952325 H         1 <1>         0.058014 
     84 H           2.007889    1.717041   -0.446009 H         1 <1>         0.054975 
     85 H           3.256603   -0.088452   -1.567791 H         1 <1>         0.065688 
     86 H           4.491160    0.003330    1.270053 H         1 <1>         0.059494 
     87 H           5.012612    1.617383   -1.295107 H         1 <1>         0.056985 
     88 H           6.352431    2.864542    0.478467 H         1 <1>         0.031028 
     89 H           6.444953    1.395513    1.482482 H         1 <1>         0.031028 
     90 H           7.662075    0.216684   -0.379806 H         1 <1>         0.031027 
     91 H           7.700901    1.735682   -1.312258 H         1 <1>         0.031027 
     92 H           8.934443    2.861011    0.713263 H         1 <1>         0.056905 
     93 H          10.801466    1.542668    1.300946 H         1 <1>         0.056896 
     94 H           9.908313   -0.565281   -0.642191 H         1 <1>         0.030732 
     95 H           9.421465   -0.985467    1.032614 H         1 <1>         0.030732 
     96 H          11.815382   -0.792617    1.764706 H         1 <1>         0.026822 
     97 H          12.289920   -0.329026    0.104392 H         1 <1>         0.026822 
     98 H          11.474126   -2.558772   -0.746285 H         1 <1>         0.026538 
     99 H          11.010883   -3.021865    0.915866 H         1 <1>         0.026538 
    100 H          13.413244   -2.814961    1.642869 H         1 <1>         0.026529 
    101 H          13.874997   -2.337241   -0.015625 H         1 <1>         0.026529 
    102 H          13.055928   -4.557997   -0.882052 H         1 <1>         0.026528 
    103 H          12.606414   -5.038342    0.779020 H         1 <1>         0.026528 
    104 H          15.013270   -4.828613    1.490719 H         1 <1>         0.026528 
    105 H          15.462157   -4.340342   -0.168322 H         1 <1>         0.026528 
    106 H          14.646887   -6.558110   -1.042564 H         1 <1>         0.026520 
    107 H          14.201777   -7.048216    0.616919 H         1 <1>         0.026520 
    108 H          16.612538   -6.839427    1.325234 H         1 <1>         0.026265 
    109 H          17.057775   -6.345735   -0.333463 H         1 <1>         0.026265 
    110 H          17.529114   -8.782169    0.030198 H         1 <1>         0.022978 
    111 H          16.261290   -8.573147   -1.213185 H         1 <1>         0.022978 
    112 H          15.814185   -9.068432    0.447843 H         1 <1>         0.022978 
    113 H          -0.438047    0.348406    3.201982 H         1 <1>         0.093741 
    114 H          -2.176520    1.901737    2.398382 H         1 <1>         0.067095 
    115 H          -2.762079    2.960518    4.626681 H         1 <1>         0.064758 
    116 H          -1.108113    2.573921    6.530740 H         1 <1>         0.064673 
    117 H           1.356018    2.447592    5.724154 H         1 <1>         0.064668 
    118 H          -0.277768   -0.135871    5.490432 H         1 <1>         0.058370 
    119 H           1.490655    0.014460    5.653374 H         1 <1>         0.058370 
    120 H           0.395165   -0.178346    7.777526 H         1 <1>         0.209508 
    121 H           0.078686    4.522141    5.846119 H         1 <1>         0.210004 
    122 H          -2.753465    0.841094    5.695054 H         1 <1>         0.210005 
    123 H          -1.793451    4.254577    2.707850 H         1 <1>         0.210110 
    124 H           3.620328   -2.089681   -0.327767 H         1 <1>         0.210289 
    125 H          -1.882804   -0.994210   -3.423960 H         1 <1>         0.210426 
@<TRIPOS>BOND
     1    1    2 1    
     2    1   17 2    
     3    1   18 1    
     4    2    3 1    
     5    2   50 1    
     6    2   51 1    
     7    3    4 1    
     8    3   52 1    
     9    3   53 1    
    10    4    5 1    
    11    4   54 1    
    12    4   55 1    
    13    5    6 1    
    14    5   56 1    
    15    5   57 1    
    16    6    7 1    
    17    6   58 1    
    18    6   59 1    
    19    7    8 1    
    20    7   60 1    
    21    7   61 1    
    22    8    9 1    
    23    8   62 1    
    24    8   63 1    
    25    9   10 1    
    26    9   64 1    
    27    9   65 1    
    28   10   11 1    
    29   10   66 1    
    30   10   67 1    
    31   11   12 1    
    32   11   68 1    
    33   11   69 1    
    34   12   13 1    
    35   12   70 1    
    36   12   71 1    
    37   13   14 1    
    38   13   72 1    
    39   13   73 1    
    40   14   15 1    
    41   14   74 1    
    42   14   75 1    
    43   15   16 1    
    44   15   76 1    
    45   15   77 1    
    46   16   78 1    
    47   16   79 1    
    48   16   80 1    
    49   18   20 1    
    50   18   81 1    
    51   20   19 1    
    52   19   37 1    
    53   19   82 1    
    54   19   83 1    
    55   20   21 1    
    56   20   84 1    
    57   21   22 1    
    58   21   49 1    
    59   21   85 1    
    60   22   23 2    
    61   22   86 1    
    62   23   24 1    
    63   23   87 1    
    64   24   25 1    
    65   24   88 1    
    66   24   89 1    
    67   25   26 1    
    68   25   90 1    
    69   25   91 1    
    70   26   27 2    
    71   26   92 1    
    72   27   28 1    
    73   27   93 1    
    74   28   29 1    
    75   28   94 1    
    76   28   95 1    
    77   29   30 1    
    78   29   96 1    
    79   29   97 1    
    80   30   31 1    
    81   30   98 1    
    82   30   99 1    
    83   31   32 1    
    84   31  100 1    
    85   31  101 1    
    86   32   33 1    
    87   32  102 1    
    88   32  103 1    
    89   33   34 1    
    90   33  104 1    
    91   33  105 1    
    92   34   35 1    
    93   34  106 1    
    94   34  107 1    
    95   35   36 1    
    96   35  108 1    
    97   35  109 1    
    98   36  110 1    
    99   36  111 1    
   100   36  112 1    
   101   37   39 1    
   102   39   38 1    
   103   38   43 1    
   104   39   40 1    
   105   39  113 1    
   106   40   41 1    
   107   40   48 1    
   108   40  114 1    
   109   41   42 1    
   110   41   47 1    
   111   41  115 1    
   112   42   43 1    
   113   42   46 1    
   114   42  116 1    
   115   43   44 1    
   116   43  117 1    
   117   44   45 1    
   118   44  118 1    
   119   44  119 1    
   120   45  120 1    
   121   46  121 1    
   122   47  122 1    
   123   48  123 1    
   124   49  124 1    
   125   50  125 1    
@<TRIPOS>SUBSTRUCTURE
     1 ****        1 TEMP              0 ****  ****    0 ROOT 
@<TRIPOS>NORMAL
@<TRIPOS>FF_PBC
FORCE_FIELD_SETUP_FEATURE Force Field Setup information
v1.0  0 0.000000 0.000000 0.000000 0.000000 0.000000 0.000000 NONE 0 0 0 0 1 0 0 0 0 0 0 0 0
