@<TRIPOS>MOLECULE
MOL004936
   48    50     1     1     0
SMALL
GASTEIGER


@<TRIPOS>ATOM
      1 C          -2.797191   -3.187098    1.284728 C.ar      1 <1>        -0.026912 
      2 C          -2.153010   -1.911256    0.896147 C.ar      1 <1>        -0.027867 
      3 C          -1.110165   -1.910471   -0.032505 C.ar      1 <1>         0.096729 
      4 C          -0.649378   -3.177062   -0.620844 C.ar      1 <1>         0.086929 
      5 C          -1.250570   -4.398983   -0.263494 C.ar      1 <1>         0.115731 
      6 C          -2.365949   -4.400939    0.722863 C.ar      1 <1>         0.103063 
      7 C           1.161589   -1.716854   -1.723701 C.2       1 <1>         0.154530 
      8 C           0.486540   -3.043714   -1.598031 C.2       1 <1>         0.223379 
      9 O          -0.505196   -0.713963   -0.399490 O.3       1 <1>        -0.305194 
     10 C           0.612372   -0.620415   -1.137919 C.2       1 <1>         0.124200 
     11 C           1.218659    0.777092   -1.232276 C.ar      1 <1>         0.014202 
     12 C           1.864772    2.942645   -0.137127 C.ar      1 <1>        -0.025291 
     13 C           1.000458    1.828528   -0.176065 C.ar      1 <1>        -0.031340 
     14 C           2.042308    1.115008   -2.330957 C.ar      1 <1>        -0.019417 
     15 C           2.900027    2.324262   -2.311589 C.ar      1 <1>         0.102846 
     16 C           2.844562    3.192909   -1.217076 C.ar      1 <1>         0.102491 
     17 C          -0.144931    1.758291    0.865431 C.3       1 <1>        -0.008520 
     18 C          -0.749842    3.045699    1.406730 C.2       1 <1>        -0.080960 
     19 C          -1.842074    3.088764    2.188811 C.2       1 <1>        -0.079307 
     20 C          -2.445612    4.391882    2.675442 C.3       1 <1>        -0.044040 
     21 C          -2.577921    1.842560    2.627885 C.3       1 <1>        -0.044040 
     22 O           3.693970    4.299254   -1.138687 O.3       1 <1>        -0.357268 
     23 O           3.791904    2.593422   -3.355376 O.3       1 <1>        -0.357260 
     24 O          -2.963164   -5.617872    1.073258 O.3       1 <1>        -0.357258 
     25 O          -0.803863   -5.597180   -0.822525 O.3       1 <1>        -0.356655 
     26 O           2.327786   -1.582138   -2.398405 O.3       1 <1>        -0.342026 
     27 C           2.893951   -2.722110   -3.074802 C.3       1 <1>         0.043278 
     28 O           0.784606   -4.041560   -2.231581 O.2       1 <1>        -0.284261 
     29 H          -3.605655   -3.170783    2.009572 H         1 <1>         0.064484 
     30 H          -2.481845   -0.972094    1.326286 H         1 <1>         0.064446 
     31 H           1.834623    3.667469    0.666761 H         1 <1>         0.064705 
     32 H           2.101327    0.491512   -3.213128 H         1 <1>         0.065084 
     33 H           0.180902    1.093752    1.679544 H         1 <1>         0.035579 
     34 H          -1.017700    1.338868    0.350393 H         1 <1>         0.035579 
     35 H          -0.315658    4.005870    1.141740 H         1 <1>         0.057471 
     36 H          -1.918969    5.286733    2.312649 H         1 <1>         0.027427 
     37 H          -2.436799    4.416631    3.774476 H         1 <1>         0.027427 
     38 H          -3.491413    4.455587    2.339231 H         1 <1>         0.027427 
     39 H          -3.180668    2.029300    3.527456 H         1 <1>         0.027427 
     40 H          -1.893009    1.019702    2.867878 H         1 <1>         0.027427 
     41 H          -3.258764    1.526976    1.823147 H         1 <1>         0.027427 
     42 H           4.236855    4.381281   -1.916905 H         1 <1>         0.217422 
     43 H           3.964853    1.842786   -3.912526 H         1 <1>         0.217422 
     44 H          -3.647304   -5.550317    1.731572 H         1 <1>         0.217422 
     45 H          -1.253797   -6.344142   -0.440284 H         1 <1>         0.217445 
     46 H           3.825209   -2.381088   -3.554430 H         1 <1>         0.052873 
     47 H           2.226291   -3.096822   -3.866663 H         1 <1>         0.052873 
     48 H           3.157571   -3.517050   -2.362208 H         1 <1>         0.052873 
@<TRIPOS>BOND
     1    1    2 1    
     2    1    6 2    
     3    1   29 1    
     4    2    3 2    
     5    2   30 1    
     6    3    4 1    
     7    3    9 1    
     8    4    5 2    
     9    4    8 1    
    10    5    6 1    
    11    5   25 1    
    12    6   24 1    
    13    8    7 1    
    14    7   10 2    
    15    7   26 1    
    16    8   28 2    
    17    9   10 1    
    18   10   11 1    
    19   11   13 1    
    20   11   14 2    
    21   13   12 2    
    22   12   16 1    
    23   12   31 1    
    24   13   17 1    
    25   14   15 1    
    26   14   32 1    
    27   15   16 2    
    28   15   23 1    
    29   16   22 1    
    30   17   18 1    
    31   17   33 1    
    32   17   34 1    
    33   18   19 2    
    34   18   35 1    
    35   19   20 1    
    36   19   21 1    
    37   20   36 1    
    38   20   37 1    
    39   20   38 1    
    40   21   39 1    
    41   21   40 1    
    42   21   41 1    
    43   22   42 1    
    44   23   43 1    
    45   24   44 1    
    46   25   45 1    
    47   26   27 1    
    48   27   46 1    
    49   27   47 1    
    50   27   48 1    
@<TRIPOS>SUBSTRUCTURE
     1 ****        1 TEMP              0 ****  ****    0 ROOT 
@<TRIPOS>NORMAL
@<TRIPOS>FF_PBC
FORCE_FIELD_SETUP_FEATURE Force Field Setup information
v1.0  0 0.000000 0.000000 0.000000 0.000000 0.000000 0.000000 NONE 0 0 0 0 1 0 0 0 0 0 0 0 0
