@<TRIPOS>MOLECULE
MOL002130
   30    30     1     1     0
SMALL
GASTEIGER


@<TRIPOS>ATOM
      1 C           0.606034   -0.699370    0.637635 C.3       1 <1>        -0.032059 
      2 C          -0.574486    0.341056    0.727865 C.3       1 <1>        -0.036134 
      3 C          -1.136010    0.889973   -0.632046 C.3       1 <1>        -0.040809 
      4 C          -1.419812   -0.277841   -1.617975 C.3       1 <1>        -0.050183 
      5 C          -0.177383   -1.185048   -1.797515 C.3       1 <1>        -0.052314 
      6 C           0.241895   -1.781667   -0.428944 C.3       1 <1>        -0.047610 
      7 C          -0.352741    2.046434   -1.325317 C.3       1 <1>        -0.062155 
      8 C          -0.347973    1.493409    1.752128 C.3       1 <1>        -0.061685 
      9 C           0.777560   -1.448486    2.001550 C.3       1 <1>        -0.059559 
     10 C           2.001670   -0.076004    0.317548 C.3       1 <1>        -0.059559 
     11 H          -1.421384   -0.237833    1.138821 H         1 <1>         0.030587 
     12 H          -2.119114    1.346018   -0.405888 H         1 <1>         0.030087 
     13 H          -1.739624    0.114573   -2.597578 H         1 <1>         0.026794 
     14 H          -2.246443   -0.893942   -1.224768 H         1 <1>         0.026794 
     15 H           0.652493   -0.630442   -2.258428 H         1 <1>         0.026554 
     16 H          -0.437000   -2.009846   -2.483436 H         1 <1>         0.026554 
     17 H           1.092155   -2.465641   -0.585887 H         1 <1>         0.027052 
     18 H          -0.600523   -2.389226   -0.058683 H         1 <1>         0.027052 
     19 H          -0.166840    2.880728   -0.634420 H         1 <1>         0.023250 
     20 H           0.601756    1.732453   -1.757318 H         1 <1>         0.023250 
     21 H          -0.954703    2.446704   -2.156986 H         1 <1>         0.023250 
     22 H           0.527657    2.104124    1.495073 H         1 <1>         0.023267 
     23 H          -1.226794    2.156608    1.775518 H         1 <1>         0.023267 
     24 H          -0.209069    1.108539    2.772407 H         1 <1>         0.023267 
     25 H          -0.173586   -1.878217    2.351122 H         1 <1>         0.023507 
     26 H           1.495886   -2.276830    1.899639 H         1 <1>         0.023507 
     27 H           1.160965   -0.784608    2.789416 H         1 <1>         0.023507 
     28 H           2.767333   -0.865995    0.278872 H         1 <1>         0.023507 
     29 H           2.037717    0.441885   -0.642840 H         1 <1>         0.023507 
     30 H           2.312810    0.633913    1.096610 H         1 <1>         0.023507 
@<TRIPOS>BOND
     1    1    2 1    
     2    1    6 1    
     3    1    9 1    
     4    1   10 1    
     5    2    3 1    
     6    2    8 1    
     7    2   11 1    
     8    3    4 1    
     9    3    7 1    
    10    3   12 1    
    11    4    5 1    
    12    4   13 1    
    13    4   14 1    
    14    5    6 1    
    15    5   15 1    
    16    5   16 1    
    17    6   17 1    
    18    6   18 1    
    19    7   19 1    
    20    7   20 1    
    21    7   21 1    
    22    8   22 1    
    23    8   23 1    
    24    8   24 1    
    25    9   25 1    
    26    9   26 1    
    27    9   27 1    
    28   10   28 1    
    29   10   29 1    
    30   10   30 1    
@<TRIPOS>SUBSTRUCTURE
     1 ****        1 TEMP              0 ****  ****    0 ROOT 
@<TRIPOS>NORMAL
@<TRIPOS>FF_PBC
FORCE_FIELD_SETUP_FEATURE Force Field Setup information
v1.0  0 0.000000 0.000000 0.000000 0.000000 0.000000 0.000000 NONE 0 0 0 0 1 0 0 0 0 0 0 0 0
