@<TRIPOS>MOLECULE
MOL001492
   68    67     1     1     0
SMALL
GASTEIGER


@<TRIPOS>ATOM
      1 O          -7.749464    0.886196   -0.512389 O.3       1 <1>        -0.315471 
      2 O          -6.089956   -0.194729   -1.442944 O.2       1 <1>        -0.264976 
      3 C         -14.053789  -10.888069   -0.020838 C.3       1 <1>        -0.053057 
      4 C         -12.591859  -10.365343    0.030055 C.3       1 <1>        -0.053057 
      5 C         -14.116703  -12.439145    0.021497 C.3       1 <1>        -0.053057 
      6 C         -12.560700   -8.815528   -0.058303 C.3       1 <1>        -0.053057 
      7 C         -15.588398  -12.935429   -0.001928 C.3       1 <1>        -0.053057 
      8 C         -11.117508   -8.248143    0.038453 C.3       1 <1>        -0.053057 
      9 C         -15.666104  -14.485912    0.011570 C.3       1 <1>        -0.053057 
     10 C         -11.133030   -6.702637   -0.110512 C.3       1 <1>        -0.053057 
     11 C         -17.139932  -14.976933    0.002358 C.3       1 <1>        -0.053057 
     12 C          -9.722441   -6.071716    0.046289 C.3       1 <1>        -0.053057 
     13 C         -17.218334  -16.527820    0.004753 C.3       1 <1>        -0.053057 
     14 C          -9.797690   -4.536399   -0.179680 C.3       1 <1>        -0.053045 
     15 C         -18.690676  -17.021442    0.001502 C.3       1 <1>        -0.053065 
     16 C          -8.437265   -3.827450    0.065293 C.3       1 <1>        -0.052596 
     17 C         -18.764985  -18.572447    0.001367 C.3       1 <1>        -0.053306 
     18 C          -8.551955   -2.308901   -0.249316 C.3       1 <1>        -0.044055 
     19 C         -20.235590  -19.070562   -0.000289 C.3       1 <1>        -0.055911 
     20 C          -7.264154   -1.520570    0.124461 C.3       1 <1>         0.033199 
     21 C         -20.303449  -20.619926   -0.001005 C.3       1 <1>        -0.065276 
     22 C          -7.019374   -0.237246   -0.652533 C.2       1 <1>         0.262151 
     23 C          -8.965925    0.827444    0.255318 C.3       1 <1>         0.054243 
     24 C          -9.502277    2.274258    0.376628 C.3       1 <1>        -0.040980 
     25 H         -14.535516  -10.533568   -0.947227 H         1 <1>         0.026528 
     26 H         -14.613934  -10.479053    0.836478 H         1 <1>         0.026528 
     27 H         -12.119058  -10.689598    0.971910 H         1 <1>         0.026528 
     28 H         -12.017458  -10.789914   -0.809082 H         1 <1>         0.026528 
     29 H         -13.622538  -12.802558    0.937763 H         1 <1>         0.026528 
     30 H         -13.577092  -12.848949   -0.848544 H         1 <1>         0.026528 
     31 H         -13.168487   -8.396730    0.761145 H         1 <1>         0.026528 
     32 H         -13.012714   -8.504226   -1.014119 H         1 <1>         0.026528 
     33 H         -16.087337  -12.556096   -0.908500 H         1 <1>         0.026528 
     34 H         -16.120891  -12.537590    0.877544 H         1 <1>         0.026528 
     35 H         -10.492817   -8.685124   -0.757199 H         1 <1>         0.026528 
     36 H         -10.679760   -8.522307    1.012330 H         1 <1>         0.026528 
     37 H         -15.159212  -14.867941    0.912544 H         1 <1>         0.026528 
     38 H         -15.142803  -14.882969   -0.873673 H         1 <1>         0.026528 
     39 H         -11.801142   -6.272760    0.653777 H         1 <1>         0.026528 
     40 H         -11.536016   -6.445534   -1.103382 H         1 <1>         0.026528 
     41 H         -17.650226  -14.589157   -0.894978 H         1 <1>         0.026528 
     42 H         -17.661437  -14.584737    0.891001 H         1 <1>         0.026528 
     43 H          -9.338078   -6.280074    1.058144 H         1 <1>         0.026528 
     44 H          -9.030600   -6.519446   -0.686067 H         1 <1>         0.026528 
     45 H         -16.705414  -16.915999    0.899899 H         1 <1>         0.026528 
     46 H         -16.700794  -16.918953   -0.886315 H         1 <1>         0.026528 
     47 H         -10.127905   -4.340432   -1.213957 H         1 <1>         0.026529 
     48 H         -10.546973   -4.109503    0.507414 H         1 <1>         0.026529 
     49 H         -19.203642  -16.630781   -0.892616 H         1 <1>         0.026528 
     50 H         -19.207191  -16.630714    0.893547 H         1 <1>         0.026528 
     51 H          -7.664520   -4.280172   -0.578713 H         1 <1>         0.026540 
     52 H          -8.137166   -3.966114    1.117262 H         1 <1>         0.026540 
     53 H         -18.250545  -18.962160    0.895107 H         1 <1>         0.026520 
     54 H         -18.248490  -18.962049   -0.891351 H         1 <1>         0.026520 
     55 H          -9.409647   -1.926193    0.322081 H         1 <1>         0.027004 
     56 H          -8.756423   -2.180074   -1.325272 H         1 <1>         0.027004 
     57 H         -20.754822  -18.686605   -0.893900 H         1 <1>         0.026265 
     58 H         -20.756477  -18.687399    0.892773 H         1 <1>         0.026265 
     59 H          -7.222405   -1.331150    1.207853 H         1 <1>         0.036606 
     60 H          -6.407292   -2.174347   -0.104550 H         1 <1>         0.036606 
     61 H         -21.352751  -20.954153   -0.002022 H         1 <1>         0.022978 
     62 H         -19.807685  -21.026737    0.894042 H         1 <1>         0.022978 
     63 H         -19.806183  -21.025878   -0.895543 H         1 <1>         0.022978 
     64 H          -8.823670    0.428498    1.272286 H         1 <1>         0.056303 
     65 H          -9.726688    0.244573   -0.285590 H         1 <1>         0.056303 
     66 H          -8.774405    2.900252    0.916854 H         1 <1>         0.025189 
     67 H          -9.660653    2.702933   -0.625683 H         1 <1>         0.025189 
     68 H         -10.459145    2.287318    0.922733 H         1 <1>         0.025189 
@<TRIPOS>BOND
     1   22    1 1    
     2    1   23 1    
     3   22    2 2    
     4    4    3 1    
     5    3    5 1    
     6    3   25 1    
     7    3   26 1    
     8    6    4 1    
     9    4   27 1    
    10    4   28 1    
    11    5    7 1    
    12    5   29 1    
    13    5   30 1    
    14    8    6 1    
    15    6   31 1    
    16    6   32 1    
    17    7    9 1    
    18    7   33 1    
    19    7   34 1    
    20   10    8 1    
    21    8   35 1    
    22    8   36 1    
    23    9   11 1    
    24    9   37 1    
    25    9   38 1    
    26   12   10 1    
    27   10   39 1    
    28   10   40 1    
    29   11   13 1    
    30   11   41 1    
    31   11   42 1    
    32   14   12 1    
    33   12   43 1    
    34   12   44 1    
    35   13   15 1    
    36   13   45 1    
    37   13   46 1    
    38   16   14 1    
    39   14   47 1    
    40   14   48 1    
    41   15   17 1    
    42   15   49 1    
    43   15   50 1    
    44   18   16 1    
    45   16   51 1    
    46   16   52 1    
    47   17   19 1    
    48   17   53 1    
    49   17   54 1    
    50   20   18 1    
    51   18   55 1    
    52   18   56 1    
    53   19   21 1    
    54   19   57 1    
    55   19   58 1    
    56   20   22 1    
    57   20   59 1    
    58   20   60 1    
    59   21   61 1    
    60   21   62 1    
    61   21   63 1    
    62   23   24 1    
    63   23   64 1    
    64   23   65 1    
    65   24   66 1    
    66   24   67 1    
    67   24   68 1    
@<TRIPOS>SUBSTRUCTURE
     1 ****        3 TEMP              0 ****  ****    0 ROOT 
@<TRIPOS>NORMAL
@<TRIPOS>FF_PBC
FORCE_FIELD_SETUP_FEATURE Force Field Setup information
v1.0  0 0.000000 0.000000 0.000000 0.000000 0.000000 0.000000 NONE 0 0 0 0 1 0 0 0 0 0 0 0 0
