@<TRIPOS>MOLECULE
MOL002286
   30    32     1     1     0
SMALL
GASTEIGER


@<TRIPOS>ATOM
      1 C          -3.334715    0.128981   -0.278086 C.ar      1 <1>         0.086138 
      2 C          -2.998329   -1.314920   -0.150328 C.ar      1 <1>         0.076607 
      3 C          -1.647050   -1.703265   -0.013455 C.ar      1 <1>        -0.034860 
      4 C          -0.564801   -0.688898    0.004084 C.ar      1 <1>         0.034062 
      5 C          -0.889869    0.681321   -0.116659 C.ar      1 <1>         0.035549 
      6 C          -2.309666    1.084651   -0.260661 C.ar      1 <1>        -0.019655 
      7 C          -4.089568   -2.363627   -0.166113 C.2       1 <1>         0.293753 
      8 O          -4.655651    0.563215   -0.416290 O.3       1 <1>        -0.359032 
      9 O          -3.802521   -3.546513   -0.063485 O.2       1 <1>        -0.259338 
     10 O          -5.364043   -1.980265   -0.292833 O.3       1 <1>        -0.327427 
     11 C           0.197449    1.732391   -0.099808 C.2       1 <1>         0.194745 
     12 C           1.648456    1.331644    0.041893 C.ar      1 <1>         0.037986 
     13 C           1.992416   -0.103745    0.167885 C.ar      1 <1>         0.062884 
     14 C           0.876470   -1.122937    0.150487 C.2       1 <1>         0.196994 
     15 C           2.675064    2.309369    0.055153 C.ar      1 <1>        -0.020262 
     16 C           3.363193   -0.494272    0.302460 C.ar      1 <1>         0.086507 
     17 C           4.416690    0.546754    0.313149 C.ar      1 <1>        -0.001429 
     18 C           4.095552    1.899781    0.194803 C.ar      1 <1>         0.075732 
     19 O           5.120875    2.847127    0.209982 O.3       1 <1>        -0.359729 
     20 O           3.738245   -1.835543    0.424525 O.3       1 <1>        -0.359020 
     21 O           1.149961   -2.307832    0.256125 O.2       1 <1>        -0.286523 
     22 O          -0.099609    2.911386   -0.201130 O.2       1 <1>        -0.286608 
     23 H          -1.391822   -2.753793    0.080388 H         1 <1>         0.063332 
     24 H          -2.567895    2.133921   -0.354956 H         1 <1>         0.065069 
     25 H          -5.297619   -0.139952   -0.418199 H         1 <1>         0.217341 
     26 H          -5.962612   -2.720994   -0.289810 H         1 <1>         0.220556 
     27 H           2.421378    3.359936   -0.037245 H         1 <1>         0.065049 
     28 H           5.454522    0.250440    0.414779 H         1 <1>         0.066922 
     29 H           4.817128    3.744159    0.128831 H         1 <1>         0.217315 
     30 H           3.008573   -2.448521    0.414415 H         1 <1>         0.217341 
@<TRIPOS>BOND
     1    1    2 1    
     2    1    6 2    
     3    1    8 1    
     4    2    3 2    
     5    2    7 1    
     6    3    4 1    
     7    3   23 1    
     8    4    5 2    
     9    4   14 1    
    10    5    6 1    
    11    5   11 1    
    12    6   24 1    
    13    7    9 2    
    14    7   10 1    
    15    8   25 1    
    16   10   26 1    
    17   11   12 1    
    18   11   22 2    
    19   12   13 1    
    20   12   15 2    
    21   13   14 1    
    22   13   16 2    
    23   14   21 2    
    24   15   18 1    
    25   15   27 1    
    26   16   17 1    
    27   16   20 1    
    28   17   18 2    
    29   17   28 1    
    30   18   19 1    
    31   19   29 1    
    32   20   30 1    
@<TRIPOS>SUBSTRUCTURE
     1 ****        1 TEMP              0 ****  ****    0 ROOT 
@<TRIPOS>NORMAL
@<TRIPOS>FF_PBC
FORCE_FIELD_SETUP_FEATURE Force Field Setup information
v1.0  0 0.000000 0.000000 0.000000 0.000000 0.000000 0.000000 NONE 0 0 0 0 1 0 0 0 0 0 0 0 0
