@<TRIPOS>MOLECULE
MOL004052
   40    41     1     1     0
SMALL
GASTEIGER


@<TRIPOS>ATOM
      1 O          -3.175573   -1.114658   -1.682793 O.3       1 <1>        -0.387502 
      2 C          -0.886806    1.054823    0.115900 C.3       1 <1>        -0.025356 
      3 C          -0.655804   -0.449699   -0.224942 C.3       1 <1>        -0.011811 
      4 C           0.231019    1.909612   -0.565221 C.3       1 <1>        -0.046538 
      5 C           0.771220   -0.922564    0.175742 C.3       1 <1>        -0.039416 
      6 C          -2.266653    1.482940   -0.485187 C.3       1 <1>        -0.044437 
      7 C           1.853337   -0.065355   -0.536930 C.3       1 <1>        -0.019837 
      8 C           1.672834    1.443230   -0.219771 C.3       1 <1>        -0.046000 
      9 C          -1.817661   -1.265813    0.311531 C.2       1 <1>        -0.044923 
     10 C          -3.449380    0.604888    0.007520 C.3       1 <1>        -0.022479 
     11 C          -0.894500    1.301614    1.659628 C.3       1 <1>        -0.059015 
     12 C          -3.171419   -0.895237   -0.261327 C.3       1 <1>         0.076302 
     13 C           3.254517   -0.538253   -0.189846 C.2       1 <1>        -0.076591 
     14 C          -1.695497   -2.243639    1.221728 C.2       1 <1>        -0.096745 
     15 C           4.100204   -1.038515   -1.340299 C.3       1 <1>        -0.043777 
     16 C           3.726180   -0.517436    1.065087 C.2       1 <1>        -0.099446 
     17 H          -0.702723   -0.563959   -1.320901 H         1 <1>         0.035179 
     18 H           0.113313    2.968925   -0.283926 H         1 <1>         0.027087 
     19 H           0.124634    1.845358   -1.660702 H         1 <1>         0.027087 
     20 H           0.904357   -0.867613    1.264301 H         1 <1>         0.027685 
     21 H           0.907958   -1.973697   -0.129373 H         1 <1>         0.027685 
     22 H          -2.235842    1.397632   -1.583992 H         1 <1>         0.027159 
     23 H          -2.474473    2.538526   -0.245045 H         1 <1>         0.027159 
     24 H           1.698591   -0.184614   -1.623541 H         1 <1>         0.034560 
     25 H           2.394531    2.020598   -0.822701 H         1 <1>         0.027114 
     26 H           1.903670    1.652686    0.833559 H         1 <1>         0.027114 
     27 H          -3.632219    0.766784    1.080743 H         1 <1>         0.029344 
     28 H          -4.369843    0.895841   -0.526069 H         1 <1>         0.029344 
     29 H          -1.197934    2.337660    1.872890 H         1 <1>         0.023525 
     30 H          -1.590611    0.628648    2.178076 H         1 <1>         0.023525 
     31 H           0.085131    1.150146    2.127217 H         1 <1>         0.023525 
     32 H          -3.993922   -1.481889    0.186363 H         1 <1>         0.064014 
     33 H          -2.565308   -2.798278    1.571993 H         1 <1>         0.053529 
     34 H          -0.746912   -2.542046    1.661614 H         1 <1>         0.053529 
     35 H          -3.005322   -2.022899   -1.912656 H         1 <1>         0.210218 
     36 H           3.599660   -1.894452   -1.817756 H         1 <1>         0.027436 
     37 H           4.220314   -0.235268   -2.082911 H         1 <1>         0.027436 
     38 H           5.102595   -1.362435   -1.021810 H         1 <1>         0.027436 
     39 H           4.733346   -0.859896    1.299913 H         1 <1>         0.053440 
     40 H           3.132691   -0.160597    1.904793 H         1 <1>         0.053440 
@<TRIPOS>BOND
     1   12    1 1    
     2    1   35 1    
     3    3    2 1    
     4    2    4 1    
     5    2    6 1    
     6    2   11 1    
     7    3    5 1    
     8    9    3 1    
     9    3   17 1    
    10    4    8 1    
    11    4   18 1    
    12    4   19 1    
    13    5    7 1    
    14    5   20 1    
    15    5   21 1    
    16    6   10 1    
    17    6   22 1    
    18    6   23 1    
    19    7    8 1    
    20    7   13 1    
    21    7   24 1    
    22    8   25 1    
    23    8   26 1    
    24    9   12 1    
    25    9   14 2    
    26   10   12 1    
    27   10   27 1    
    28   10   28 1    
    29   11   29 1    
    30   11   30 1    
    31   11   31 1    
    32   12   32 1    
    33   13   15 1    
    34   13   16 2    
    35   14   33 1    
    36   14   34 1    
    37   15   36 1    
    38   15   37 1    
    39   15   38 1    
    40   16   39 1    
    41   16   40 1    
@<TRIPOS>SUBSTRUCTURE
     1 ****        2 TEMP              0 ****  ****    0 ROOT 
@<TRIPOS>NORMAL
@<TRIPOS>FF_PBC
FORCE_FIELD_SETUP_FEATURE Force Field Setup information
v1.0  0 0.000000 0.000000 0.000000 0.000000 0.000000 0.000000 NONE 0 0 0 0 1 0 0 0 0 0 0 0 0
