@<TRIPOS>MOLECULE
MOL000257
   26    26     1     1     0
SMALL
GASTEIGER


@<TRIPOS>ATOM
      1 C           0.699029    1.206865   -0.284808 C.2       1 <1>        -0.080421 
      2 C           0.342389   -0.266684   -0.231443 C.3       1 <1>        -0.019977 
      3 C          -1.117678   -0.403408    0.289932 C.3       1 <1>        -0.042544 
      4 C          -2.100730    0.461102   -0.539051 C.3       1 <1>        -0.027701 
      5 C          -1.656284    1.900481   -0.526083 C.2       1 <1>        -0.054705 
      6 C          -0.212602    2.179722   -0.410864 C.2       1 <1>        -0.062780 
      7 C          -2.548024    2.896708   -0.615634 C.2       1 <1>        -0.095505 
      8 C           1.377669   -1.063877    0.635097 C.3       1 <1>        -0.040434 
      9 C           0.877547   -2.481452    1.041923 C.3       1 <1>        -0.062133 
     10 C           2.737030   -1.228141   -0.110677 C.3       1 <1>        -0.062133 
     11 H           1.739746    1.522921   -0.223505 H         1 <1>         0.057498 
     12 H           0.370978   -0.659930   -1.260816 H         1 <1>         0.034561 
     13 H          -1.469132   -1.445158    0.217346 H         1 <1>         0.027409 
     14 H          -1.156976   -0.087593    1.345550 H         1 <1>         0.027409 
     15 H          -3.114786    0.353695   -0.119164 H         1 <1>         0.031317 
     16 H          -2.118818    0.115789   -1.585048 H         1 <1>         0.031317 
     17 H           0.124043    3.217930   -0.433923 H         1 <1>         0.061710 
     18 H          -3.615502    2.696557   -0.703928 H         1 <1>         0.053749 
     19 H          -2.237310    3.941048   -0.604833 H         1 <1>         0.053749 
     20 H           1.555806   -0.499777    1.567530 H         1 <1>         0.030110 
     21 H           0.032150   -2.426263    1.744233 H         1 <1>         0.023251 
     22 H           1.675533   -3.045254    1.549706 H         1 <1>         0.023251 
     23 H           0.569218   -3.047290    0.149290 H         1 <1>         0.023251 
     24 H           3.181765   -0.265531   -0.396687 H         1 <1>         0.023251 
     25 H           3.467507   -1.746188    0.530361 H         1 <1>         0.023251 
     26 H           2.597433   -1.826071   -1.024505 H         1 <1>         0.023251 
@<TRIPOS>BOND
     1    1    2 1    
     2    1    6 2    
     3    1   11 1    
     4    2    3 1    
     5    2    8 1    
     6    2   12 1    
     7    3    4 1    
     8    3   13 1    
     9    3   14 1    
    10    4    5 1    
    11    4   15 1    
    12    4   16 1    
    13    5    6 1    
    14    5    7 2    
    15    6   17 1    
    16    7   18 1    
    17    7   19 1    
    18    8    9 1    
    19    8   10 1    
    20    8   20 1    
    21    9   21 1    
    22    9   22 1    
    23    9   23 1    
    24   10   24 1    
    25   10   25 1    
    26   10   26 1    
@<TRIPOS>SUBSTRUCTURE
     1 ****        1 TEMP              0 ****  ****    0 ROOT 
@<TRIPOS>NORMAL
@<TRIPOS>FF_PBC
FORCE_FIELD_SETUP_FEATURE Force Field Setup information
v1.0  0 0.000000 0.000000 0.000000 0.000000 0.000000 0.000000 NONE 0 0 0 0 1 0 0 0 0 0 0 0 0
