@<TRIPOS>MOLECULE
MOL004704
   81    86     1     1     0
SMALL
GASTEIGER


@<TRIPOS>ATOM
      1 O          -4.959486   -3.199311   -2.295168 O.3       1 <1>        -0.391248 
      2 C           1.005729    0.620145   -0.263794 C.3       1 <1>         0.009124 
      3 O           1.804847   -0.636639    1.764414 O.3       1 <1>        -0.367842 
      4 C          -0.642950   -1.656757   -3.161145 C.3       1 <1>        -0.048598 
      5 C           0.363981   -0.689881   -2.462323 C.3       1 <1>        -0.046184 
      6 C          -1.431589   -0.267968    0.942385 C.2       1 <1>        -0.081074 
      7 C          -0.431372    0.119830    1.750258 C.2       1 <1>        -0.055410 
      8 C           3.401942    1.576112    0.161527 C.3       1 <1>         0.063916 
      9 C          -4.626096   -2.013612   -3.040175 C.3       1 <1>         0.060638 
     10 C          -3.196212   -2.093945   -3.683102 C.3       1 <1>        -0.005580 
     11 C          -2.127015   -1.348136   -2.786344 C.3       1 <1>        -0.027564 
     12 C          -2.362850   -1.394503   -1.229666 C.3       1 <1>        -0.021826 
     13 C          -1.294702   -0.442728   -0.556344 C.3       1 <1>        -0.011152 
     14 C           0.225408   -0.622676   -0.904397 C.3       1 <1>        -0.016907 
     15 C           0.980326    0.454109    1.302089 C.3       1 <1>         0.096991 
     16 C           3.175779   -0.226910    1.918737 C.3       1 <1>         0.057154 
     17 C           3.153049    1.302156    1.679393 C.3       1 <1>         0.025848 
     18 C           1.685255    1.633211    2.044487 C.3       1 <1>         0.002843 
     19 C           1.452308    1.636874    3.587270 C.3       1 <1>        -0.041426 
     20 C           2.435070    2.562918    4.366441 C.3       1 <1>        -0.034485 
     21 C           3.893330    2.121290    4.048626 C.3       1 <1>        -0.047195 
     22 C           4.193150    2.098846    2.525014 C.3       1 <1>        -0.042066 
     23 C          -4.759506   -0.755772   -2.148055 C.3       1 <1>        -0.025822 
     24 C          -3.807130   -0.828158   -0.920111 C.3       1 <1>        -0.044448 
     25 C           2.485443    0.720287   -0.766393 C.3       1 <1>        -0.017380 
     26 C          -3.270620   -1.409343   -5.093743 C.3       1 <1>        -0.057190 
     27 C          -2.843139   -3.590403   -3.950970 C.3       1 <1>        -0.057190 
     28 C          -2.282052   -2.837255   -0.623118 C.3       1 <1>        -0.058737 
     29 C           0.768622   -1.984284   -0.326501 C.3       1 <1>        -0.058408 
     30 C           0.348562    2.014065   -0.613988 C.3       1 <1>        -0.056020 
     31 C           2.182881    2.391554    5.896900 C.3       1 <1>        -0.059801 
     32 C           2.208281    4.067935    4.020383 C.3       1 <1>        -0.059801 
     33 O           4.782086    1.283797   -0.132859 O.3       1 <1>        -0.391131 
     34 H          -5.828577   -3.182022   -1.906252 H         1 <1>         0.209800 
     35 H          -0.406013   -2.706953   -2.958645 H         1 <1>         0.026846 
     36 H          -0.485669   -1.528028   -4.242816 H         1 <1>         0.026846 
     37 H           1.387915   -1.001282   -2.725611 H         1 <1>         0.027097 
     38 H           0.205504    0.292960   -2.922943 H         1 <1>         0.027097 
     39 H          -2.399690   -0.466441    1.404693 H         1 <1>         0.057297 
     40 H          -0.666019    0.171213    2.811920 H         1 <1>         0.059762 
     41 H           3.251359    2.653799   -0.019215 H         1 <1>         0.059965 
     42 H          -5.388750   -1.952510   -3.838126 H         1 <1>         0.059852 
     43 H          -2.232993   -0.283981   -3.051411 H         1 <1>         0.031219 
     44 H          -1.596481    0.523296   -0.972911 H         1 <1>         0.035379 
     45 H           3.457816   -0.500955    2.943080 H         1 <1>         0.056652 
     46 H           3.860116   -0.765988    1.247330 H         1 <1>         0.056652 
     47 H           1.381883    2.624602    1.692402 H         1 <1>         0.033899 
     48 H           0.428883    1.984400    3.800559 H         1 <1>         0.027428 
     49 H           1.543797    0.613556    3.982008 H         1 <1>         0.027428 
     50 H           4.602276    2.806026    4.542960 H         1 <1>         0.027062 
     51 H           4.072940    1.122077    4.472767 H         1 <1>         0.027062 
     52 H           4.240319    3.136325    2.161781 H         1 <1>         0.027239 
     53 H           5.191201    1.657819    2.368531 H         1 <1>         0.027239 
     54 H          -5.801099   -0.656394   -1.797401 H         1 <1>         0.029038 
     55 H          -4.545712    0.139542   -2.754214 H         1 <1>         0.029038 
     56 H          -4.299058   -1.432130   -0.139900 H         1 <1>         0.027158 
     57 H          -3.793303    0.198611   -0.519415 H         1 <1>         0.027158 
     58 H           2.506419    1.152061   -1.780152 H         1 <1>         0.029668 
     59 H           2.966190   -0.257152   -0.863284 H         1 <1>         0.029668 
     60 H          -2.306454   -1.419727   -5.618830 H         1 <1>         0.023587 
     61 H          -3.987747   -1.929616   -5.747951 H         1 <1>         0.023587 
     62 H          -3.597890   -0.361726   -5.014206 H         1 <1>         0.023587 
     63 H          -3.663879   -4.076410   -4.501060 H         1 <1>         0.023587 
     64 H          -2.689740   -4.154534   -3.023587 H         1 <1>         0.023587 
     65 H          -1.934822   -3.688390   -4.563460 H         1 <1>         0.023587 
     66 H          -3.200902   -3.411224   -0.777118 H         1 <1>         0.023534 
     67 H          -2.137985   -2.789515    0.465400 H         1 <1>         0.023534 
     68 H          -1.487363   -3.456672   -1.039184 H         1 <1>         0.023534 
     69 H           1.851425   -2.003077   -0.177566 H         1 <1>         0.023543 
     70 H           0.616968   -2.841002   -0.983292 H         1 <1>         0.023543 
     71 H           0.306978   -2.234550    0.638549 H         1 <1>         0.023543 
     72 H           1.033736    2.863677   -0.515095 H         1 <1>         0.023625 
     73 H           0.001123    2.087966   -1.650365 H         1 <1>         0.023625 
     74 H          -0.504954    2.241614    0.042904 H         1 <1>         0.023625 
     75 H           2.879955    3.014996    6.477838 H         1 <1>         0.023499 
     76 H           1.155608    2.689286    6.157839 H         1 <1>         0.023499 
     77 H           2.322444    1.345472    6.210374 H         1 <1>         0.023499 
     78 H           2.890704    4.699093    4.609945 H         1 <1>         0.023499 
     79 H           1.176497    4.362949    4.265232 H         1 <1>         0.023499 
     80 H           2.377249    4.302485    2.962137 H         1 <1>         0.023499 
     81 H           5.024140    1.465883   -1.035914 H         1 <1>         0.209802 
@<TRIPOS>BOND
     1    9    1 1    
     2    1   34 1    
     3   14    2 1    
     4    2   15 1    
     5    2   25 1    
     6    2   30 1    
     7   15    3 1    
     8    3   16 1    
     9    4    5 1    
    10   11    4 1    
    11    4   35 1    
    12    4   36 1    
    13    5   14 1    
    14    5   37 1    
    15    5   38 1    
    16    7    6 2    
    17    6   13 1    
    18    6   39 1    
    19   15    7 1    
    20    7   40 1    
    21    8   17 1    
    22   25    8 1    
    23    8   33 1    
    24    8   41 1    
    25   10    9 1    
    26    9   23 1    
    27    9   42 1    
    28   10   11 1    
    29   10   26 1    
    30   10   27 1    
    31   11   12 1    
    32   11   43 1    
    33   12   13 1    
    34   12   24 1    
    35   12   28 1    
    36   13   14 1    
    37   13   44 1    
    38   14   29 1    
    39   15   18 1    
    40   16   17 1    
    41   16   45 1    
    42   16   46 1    
    43   17   18 1    
    44   17   22 1    
    45   18   19 1    
    46   18   47 1    
    47   19   20 1    
    48   19   48 1    
    49   19   49 1    
    50   20   21 1    
    51   20   31 1    
    52   20   32 1    
    53   21   22 1    
    54   21   50 1    
    55   21   51 1    
    56   22   52 1    
    57   22   53 1    
    58   23   24 1    
    59   23   54 1    
    60   23   55 1    
    61   24   56 1    
    62   24   57 1    
    63   25   58 1    
    64   25   59 1    
    65   26   60 1    
    66   26   61 1    
    67   26   62 1    
    68   27   63 1    
    69   27   64 1    
    70   27   65 1    
    71   28   66 1    
    72   28   67 1    
    73   28   68 1    
    74   29   69 1    
    75   29   70 1    
    76   29   71 1    
    77   30   72 1    
    78   30   73 1    
    79   30   74 1    
    80   31   75 1    
    81   31   76 1    
    82   31   77 1    
    83   32   78 1    
    84   32   79 1    
    85   32   80 1    
    86   33   81 1    
@<TRIPOS>SUBSTRUCTURE
     1 ****        1 TEMP              0 ****  ****    0 ROOT 
@<TRIPOS>NORMAL
@<TRIPOS>FF_PBC
FORCE_FIELD_SETUP_FEATURE Force Field Setup information
v1.0  0 0.000000 0.000000 0.000000 0.000000 0.000000 0.000000 NONE 0 0 0 0 1 0 0 0 0 0 0 0 0
