@<TRIPOS>MOLECULE
MOL004595
  133   139     1     1     0
SMALL
GASTEIGER


@<TRIPOS>ATOM
      1 O          -3.154143    0.703481    0.585536 O.3       1 <1>        -0.344807 
      2 O           5.584413   -3.419443   -5.142718 O.3       1 <1>        -0.390817 
      3 O          -1.766183    2.401484    2.059151 O.3       1 <1>        -0.394374 
      4 O           7.453558   -2.180186   -3.294910 O.3       1 <1>        -0.394059 
      5 O          -5.418422    0.691066    0.788769 O.3       1 <1>        -0.343072 
      6 O          -4.646577   -1.627933    2.980908 O.3       1 <1>        -0.384094 
      7 O          -4.332312    2.069013    3.006304 O.3       1 <1>        -0.340053 
      8 O          -7.216137    1.685922    3.523599 O.3       1 <1>        -0.386569 
      9 O          -5.738159    3.989215    2.857724 O.3       1 <1>        -0.340492 
     10 O          -3.852746    4.284206    5.706618 O.3       1 <1>        -0.384076 
     11 O          -2.429227    6.101150    4.043433 O.3       1 <1>        -0.306624 
     12 O          -3.533907    6.457196    1.275352 O.3       1 <1>        -0.386461 
     13 O          -4.418625    4.562101   -0.587424 O.3       1 <1>        -0.312725 
     14 O          -1.068871    7.814683    4.082280 O.2       1 <1>        -0.265272 
     15 O          -3.700188    4.631884   -2.666044 O.2       1 <1>        -0.265282 
     16 C           3.167475   -0.574729   -1.788601 C.3       1 <1>        -0.015850 
     17 C           0.481900   -0.571612   -1.555757 C.3       1 <1>        -0.021728 
     18 C           1.828903   -1.404694   -1.672489 C.3       1 <1>        -0.010741 
     19 C           0.556379    0.307793   -0.251513 C.3       1 <1>        -0.025206 
     20 C           4.384247   -1.613533   -1.957146 C.3       1 <1>         0.001211 
     21 C           3.171658    0.286237   -0.471573 C.3       1 <1>        -0.045983 
     22 C          -0.769931    1.059443    0.170655 C.3       1 <1>         0.020641 
     23 C           1.880240    1.136734   -0.213714 C.3       1 <1>        -0.048508 
     24 C          -0.753928   -1.531871   -1.440749 C.3       1 <1>        -0.044437 
     25 C           4.259783   -2.938958   -1.227042 C.2       1 <1>        -0.041177 
     26 C           4.607818   -1.992964   -3.468495 C.3       1 <1>        -0.016023 
     27 C          -1.927333    0.000641    0.267223 C.3       1 <1>         0.069511 
     28 C           5.917949   -4.123869   -2.741268 C.3       1 <1>         0.041279 
     29 C          -2.081853   -0.819371   -1.045484 C.3       1 <1>        -0.025376 
     30 C           3.298990    0.482100   -2.955173 C.3       1 <1>        -0.058207 
     31 C           2.042940   -2.318211   -0.465582 C.2       1 <1>        -0.079573 
     32 C           0.247584    0.227135   -2.887242 C.3       1 <1>        -0.058735 
     33 C           5.047615   -4.011672   -1.481197 C.2       1 <1>        -0.054572 
     34 C           5.011002   -3.458033   -3.818511 C.3       1 <1>         0.067441 
     35 C           5.670201   -1.019006   -1.282149 C.3       1 <1>        -0.054936 
     36 C           3.174773   -2.991975   -0.236162 C.2       1 <1>        -0.061680 
     37 C          -0.609193    1.684241    1.602689 C.3       1 <1>         0.052209 
     38 C          -1.158335    2.255840   -0.758409 C.3       1 <1>        -0.054821 
     39 C           6.009585   -5.657852   -3.060523 C.3       1 <1>        -0.038670 
     40 C           5.009677   -5.237987   -0.574197 C.3       1 <1>        -0.025318 
     41 C           6.219310   -6.230431   -0.557824 C.3       1 <1>        -0.031141 
     42 C           6.828010   -6.413702   -1.984063 C.3       1 <1>        -0.046636 
     43 C           7.370498   -3.532266   -2.804071 C.3       1 <1>         0.055890 
     44 C           5.714334   -7.610400   -0.027865 C.3       1 <1>        -0.059522 
     45 C           7.311224   -5.733507    0.443805 C.3       1 <1>        -0.059522 
     46 C          -4.246357   -0.086823    1.115703 C.3       1 <1>         0.188127 
     47 C          -4.125205   -0.320768    2.650726 C.3       1 <1>         0.134483 
     48 C          -4.923900    0.792540    3.377131 C.3       1 <1>         0.120486 
     49 C          -6.594436    0.271404    1.505301 C.3       1 <1>         0.087317 
     50 C          -6.431436    0.580939    3.030357 C.3       1 <1>         0.109842 
     51 C          -7.830212    0.951140    0.862636 C.3       1 <1>        -0.036060 
     52 C          -4.859224    3.225192    3.705268 C.3       1 <1>         0.188465 
     53 C          -3.710982    4.111622    4.278209 C.3       1 <1>         0.134979 
     54 C          -3.668279    5.507193    3.594744 C.3       1 <1>         0.126813 
     55 C          -5.098358    4.625394    1.729280 C.3       1 <1>         0.113877 
     56 C          -3.723747    5.266960    2.063640 C.3       1 <1>         0.112778 
     57 C          -4.998286    3.751012    0.457620 C.3       1 <1>         0.085833 
     58 C          -2.178172    7.400900    3.788083 C.2       1 <1>         0.259456 
     59 C          -3.156234    8.386038    3.183522 C.3       1 <1>         0.021445 
     60 C          -4.248189    3.982141   -1.791101 C.2       1 <1>         0.259120 
     61 C          -4.716701    2.575024   -2.089816 C.3       1 <1>         0.021435 
     62 H           5.754561   -4.267773   -5.534273 H         1 <1>         0.209815 
     63 H          -2.568858    1.888184    2.039304 H         1 <1>         0.209420 
     64 H           8.339298   -1.830869   -3.338941 H         1 <1>         0.209434 
     65 H          -4.565109   -1.850105    3.904109 H         1 <1>         0.210111 
     66 H          -8.158510    1.569307    3.460164 H         1 <1>         0.210002 
     67 H          -3.152433    4.816592    6.075292 H         1 <1>         0.210111 
     68 H          -3.558488    6.271817    0.338055 H         1 <1>         0.210004 
     69 H           1.742109   -2.073784   -2.542266 H         1 <1>         0.035395 
     70 H           0.690657   -0.380561    0.591447 H         1 <1>         0.031301 
     71 H           4.012317    1.000218   -0.492023 H         1 <1>         0.027105 
     72 H           3.312428   -0.353606    0.413898 H         1 <1>         0.027105 
     73 H           1.801885    1.993333   -0.891453 H         1 <1>         0.026847 
     74 H           2.036126    1.569091    0.786767 H         1 <1>         0.026847 
     75 H          -0.895369   -2.064574   -2.396276 H         1 <1>         0.027158 
     76 H          -0.620476   -2.309313   -0.680101 H         1 <1>         0.027158 
     77 H           5.325182   -1.292923   -3.920070 H         1 <1>         0.029895 
     78 H           3.674877   -1.887632   -4.038148 H         1 <1>         0.029895 
     79 H          -1.673852   -0.711788    1.069357 H         1 <1>         0.060308 
     80 H          -2.827477   -1.619571   -0.922993 H         1 <1>         0.029048 
     81 H          -2.487942   -0.165806   -1.826627 H         1 <1>         0.029048 
     82 H           2.898042    0.156598   -3.920676 H         1 <1>         0.023552 
     83 H           4.352871    0.735968   -3.122669 H         1 <1>         0.023552 
     84 H           2.851524    1.457163   -2.758200 H         1 <1>         0.023552 
     85 H           1.305547   -2.490095    0.315570 H         1 <1>         0.057525 
     86 H           0.681831   -0.309984   -3.740269 H         1 <1>         0.023534 
     87 H          -0.800094    0.334911   -3.182051 H         1 <1>         0.023534 
     88 H           0.648614    1.243542   -2.854445 H         1 <1>         0.023534 
     89 H           4.079019   -4.056379   -3.869861 H         1 <1>         0.060283 
     90 H           5.506603   -0.777124   -0.224650 H         1 <1>         0.023839 
     91 H           6.034674   -0.115616   -1.789334 H         1 <1>         0.023839 
     92 H           6.499622   -1.724678   -1.235239 H         1 <1>         0.023839 
     93 H           3.224655   -3.574045    0.682731 H         1 <1>         0.061744 
     94 H          -0.342904    0.921345    2.352609 H         1 <1>         0.056334 
     95 H           0.162869    2.465197    1.620062 H         1 <1>         0.056334 
     96 H          -1.459709    1.961909   -1.764870 H         1 <1>         0.023667 
     97 H          -2.011617    2.810872   -0.345624 H         1 <1>         0.023667 
     98 H          -0.330138    2.971734   -0.846560 H         1 <1>         0.023667 
     99 H           6.494909   -5.848833   -4.030344 H         1 <1>         0.027536 
    100 H           5.008716   -6.116390   -3.121810 H         1 <1>         0.027536 
    101 H           4.886367   -4.958565    0.478666 H         1 <1>         0.031555 
    102 H           4.097417   -5.773949   -0.879912 H         1 <1>         0.031555 
    103 H           6.860935   -7.478936   -2.268477 H         1 <1>         0.027081 
    104 H           7.872478   -6.068184   -2.012146 H         1 <1>         0.027081 
    105 H           7.852584   -3.610881   -1.820364 H         1 <1>         0.056653 
    106 H           7.976853   -4.109881   -3.522113 H         1 <1>         0.056653 
    107 H           5.238781   -7.502241    0.959374 H         1 <1>         0.023508 
    108 H           4.974924   -8.048473   -0.716522 H         1 <1>         0.023508 
    109 H           6.551174   -8.319377    0.071365 H         1 <1>         0.023508 
    110 H           8.198166   -6.385102    0.407971 H         1 <1>         0.023508 
    111 H           6.936944   -5.738772    1.479326 H         1 <1>         0.023508 
    112 H           7.622824   -4.706814    0.213206 H         1 <1>         0.023508 
    113 H          -4.361786   -1.058399    0.615514 H         1 <1>         0.093748 
    114 H          -3.066534   -0.280856    2.954837 H         1 <1>         0.067105 
    115 H          -4.781442    0.653267    4.462727 H         1 <1>         0.065136 
    116 H          -6.721415   -0.815355    1.344295 H         1 <1>         0.062075 
    117 H          -6.776334   -0.308230    3.590574 H         1 <1>         0.064594 
    118 H          -8.762053    0.552428    1.292754 H         1 <1>         0.025536 
    119 H          -7.803899    2.039015    1.016272 H         1 <1>         0.025536 
    120 H          -7.836015    0.755294   -0.221006 H         1 <1>         0.025536 
    121 H          -5.462214    2.943006    4.583575 H         1 <1>         0.093753 
    122 H          -2.757126    3.587050    4.097323 H         1 <1>         0.067122 
    123 H          -4.556651    6.040239    3.967615 H         1 <1>         0.065660 
    124 H          -5.791073    5.447996    1.486095 H         1 <1>         0.064694 
    125 H          -2.896662    4.579623    1.823148 H         1 <1>         0.064700 
    126 H          -4.352828    2.898570    0.685661 H         1 <1>         0.059261 
    127 H          -6.006848    3.397905    0.202761 H         1 <1>         0.059261 
    128 H          -3.164707    9.279280    3.825586 H         1 <1>         0.033023 
    129 H          -4.196491    8.059689    3.073744 H         1 <1>         0.033023 
    130 H          -2.778375    8.688258    2.195723 H         1 <1>         0.033023 
    131 H          -4.241163    1.837106   -1.432054 H         1 <1>         0.033023 
    132 H          -4.448685    2.313975   -3.124655 H         1 <1>         0.033023 
    133 H          -5.809551    2.499642   -1.998423 H         1 <1>         0.033023 
@<TRIPOS>BOND
     1    1   27 1    
     2   46    1 1    
     3   34    2 1    
     4    2   62 1    
     5   37    3 1    
     6    3   63 1    
     7   43    4 1    
     8    4   64 1    
     9   46    5 1    
    10   49    5 1    
    11   47    6 1    
    12    6   65 1    
    13    7   48 1    
    14   52    7 1    
    15   50    8 1    
    16    8   66 1    
    17    9   52 1    
    18   55    9 1    
    19   53   10 1    
    20   10   67 1    
    21   54   11 1    
    22   11   58 1    
    23   56   12 1    
    24   12   68 1    
    25   57   13 1    
    26   13   60 1    
    27   58   14 2    
    28   60   15 2    
    29   18   16 1    
    30   16   20 1    
    31   21   16 1    
    32   16   30 1    
    33   17   18 1    
    34   19   17 1    
    35   24   17 1    
    36   17   32 1    
    37   18   31 1    
    38   18   69 1    
    39   22   19 1    
    40   19   23 1    
    41   19   70 1    
    42   20   25 1    
    43   20   26 1    
    44   20   35 1    
    45   23   21 1    
    46   21   71 1    
    47   21   72 1    
    48   27   22 1    
    49   22   37 1    
    50   22   38 1    
    51   23   73 1    
    52   23   74 1    
    53   29   24 1    
    54   24   75 1    
    55   24   76 1    
    56   25   33 2    
    57   36   25 1    
    58   26   34 1    
    59   26   77 1    
    60   26   78 1    
    61   27   29 1    
    62   27   79 1    
    63   33   28 1    
    64   34   28 1    
    65   28   39 1    
    66   28   43 1    
    67   29   80 1    
    68   29   81 1    
    69   30   82 1    
    70   30   83 1    
    71   30   84 1    
    72   31   36 2    
    73   31   85 1    
    74   32   86 1    
    75   32   87 1    
    76   32   88 1    
    77   33   40 1    
    78   34   89 1    
    79   35   90 1    
    80   35   91 1    
    81   35   92 1    
    82   36   93 1    
    83   37   94 1    
    84   37   95 1    
    85   38   96 1    
    86   38   97 1    
    87   38   98 1    
    88   39   42 1    
    89   39   99 1    
    90   39  100 1    
    91   40   41 1    
    92   40  101 1    
    93   40  102 1    
    94   41   42 1    
    95   41   44 1    
    96   41   45 1    
    97   42  103 1    
    98   42  104 1    
    99   43  105 1    
   100   43  106 1    
   101   44  107 1    
   102   44  108 1    
   103   44  109 1    
   104   45  110 1    
   105   45  111 1    
   106   45  112 1    
   107   47   46 1    
   108   46  113 1    
   109   48   47 1    
   110   47  114 1    
   111   48   50 1    
   112   48  115 1    
   113   50   49 1    
   114   49   51 1    
   115   49  116 1    
   116   50  117 1    
   117   51  118 1    
   118   51  119 1    
   119   51  120 1    
   120   52   53 1    
   121   52  121 1    
   122   54   53 1    
   123   53  122 1    
   124   56   54 1    
   125   54  123 1    
   126   55   56 1    
   127   55   57 1    
   128   55  124 1    
   129   56  125 1    
   130   57  126 1    
   131   57  127 1    
   132   58   59 1    
   133   59  128 1    
   134   59  129 1    
   135   59  130 1    
   136   60   61 1    
   137   61  131 1    
   138   61  132 1    
   139   61  133 1    
@<TRIPOS>SUBSTRUCTURE
     1 ****       16 TEMP              0 ****  ****    0 ROOT 
@<TRIPOS>NORMAL
@<TRIPOS>FF_PBC
FORCE_FIELD_SETUP_FEATURE Force Field Setup information
v1.0  0 0.000000 0.000000 0.000000 0.000000 0.000000 0.000000 NONE 0 0 0 0 1 0 0 0 0 0 0 0 0
