@<TRIPOS>MOLECULE
MOL008134
   24    24     1     1     0
SMALL
GASTEIGER


@<TRIPOS>ATOM
      1 C          -1.280612    2.112543    0.158726 C.3       1 <1>        -0.041022 
      2 C          -0.378608    3.093152    0.939220 C.3       1 <1>        -0.049959 
      3 C          -1.088387    3.556794   -0.352803 C.3       1 <1>        -0.049959 
      4 C          -0.546988    0.998918   -0.631379 C.3       1 <1>        -0.050209 
      5 C          -0.263188   -0.208240    0.300302 C.3       1 <1>        -0.052815 
      6 C           0.456274   -1.354976   -0.460594 C.3       1 <1>        -0.053297 
      7 C           0.732880   -2.565299    0.472241 C.3       1 <1>        -0.055911 
      8 C           1.451823   -3.710038   -0.288124 C.3       1 <1>        -0.065276 
      9 H          -2.258278    1.898537    0.620134 H         1 <1>         0.030078 
     10 H          -0.776105    3.491758    1.885709 H         1 <1>         0.026802 
     11 H           0.711863    2.953333    0.877540 H         1 <1>         0.026802 
     12 H          -0.447592    3.715082   -1.234097 H         1 <1>         0.026802 
     13 H          -1.932991    4.251139   -0.221161 H         1 <1>         0.026802 
     14 H          -1.199432    0.687918   -1.462624 H         1 <1>         0.026794 
     15 H           0.400560    1.366440   -1.057499 H         1 <1>         0.026794 
     16 H           0.365778    0.127275    1.141356 H         1 <1>         0.026537 
     17 H          -1.216402   -0.581569    0.709762 H         1 <1>         0.026537 
     18 H          -0.172376   -1.681961   -1.305100 H         1 <1>         0.026520 
     19 H           1.411431   -0.981537   -0.865197 H         1 <1>         0.026520 
     20 H           1.362936   -2.243041    1.318152 H         1 <1>         0.026265 
     21 H          -0.220033   -2.945224    0.877190 H         1 <1>         0.026265 
     22 H           1.636287   -4.558519    0.389770 H         1 <1>         0.022978 
     23 H           0.832450   -4.061391   -1.128170 H         1 <1>         0.022978 
     24 H           2.418607   -3.360994   -0.683254 H         1 <1>         0.022978 
@<TRIPOS>BOND
     1    1    2 1    
     2    1    3 1    
     3    1    4 1    
     4    1    9 1    
     5    2    3 1    
     6    2   10 1    
     7    2   11 1    
     8    3   12 1    
     9    3   13 1    
    10    4    5 1    
    11    4   14 1    
    12    4   15 1    
    13    5    6 1    
    14    5   16 1    
    15    5   17 1    
    16    6    7 1    
    17    6   18 1    
    18    6   19 1    
    19    7    8 1    
    20    7   20 1    
    21    7   21 1    
    22    8   22 1    
    23    8   23 1    
    24    8   24 1    
@<TRIPOS>SUBSTRUCTURE
     1 ****        1 TEMP              0 ****  ****    0 ROOT 
@<TRIPOS>NORMAL
@<TRIPOS>FF_PBC
FORCE_FIELD_SETUP_FEATURE Force Field Setup information
v1.0  0 0.000000 0.000000 0.000000 0.000000 0.000000 0.000000 NONE 0 0 0 0 1 0 0 0 0 0 0 0 0
