@<TRIPOS>MOLECULE
MOL004687
   25    24     1     1     0
SMALL
GASTEIGER


@<TRIPOS>ATOM
      1 C          -2.188201   -3.798378    0.000118 C.3       1 <1>        -0.065276 
      2 C          -0.863629   -2.991580   -0.000100 C.3       1 <1>        -0.055911 
      3 C          -1.134701   -1.462394    0.000103 C.3       1 <1>        -0.053295 
      4 C           0.190749   -0.652635   -0.000103 C.3       1 <1>        -0.052682 
      5 C          -0.082390    0.876445    0.000078 C.3       1 <1>        -0.046385 
      6 C           1.239833    1.690551   -0.000098 C.3       1 <1>         0.005543 
      7 C           0.995696    3.180871    0.000082 C.2       1 <1>         0.130322 
      8 C           2.190966    4.098238   -0.000114 C.3       1 <1>        -0.006065 
      9 O          -0.132900    3.645234    0.000352 O.2       1 <1>        -0.297704 
     10 H          -1.974112   -4.878904   -0.000036 H         1 <1>         0.022978 
     11 H          -2.783412   -3.559572    0.895278 H         1 <1>         0.022978 
     12 H          -2.783807   -3.559391   -0.894720 H         1 <1>         0.022978 
     13 H          -0.276864   -3.262535   -0.893754 H         1 <1>         0.026265 
     14 H          -0.276472   -3.262706    0.893273 H         1 <1>         0.026265 
     15 H          -1.723990   -1.197803    0.893587 H         1 <1>         0.026520 
     16 H          -1.724364   -1.197639   -0.893052 H         1 <1>         0.026520 
     17 H           0.779462   -0.918034   -0.893645 H         1 <1>         0.026539 
     18 H           0.779826   -0.918179    0.893179 H         1 <1>         0.026539 
     19 H          -0.670189    1.143954    0.893927 H         1 <1>         0.026927 
     20 H          -0.670518    1.144099   -0.893499 H         1 <1>         0.026927 
     21 H           1.828303    1.432919   -0.894876 H         1 <1>         0.034143 
     22 H           1.828635    1.432758    0.894417 H         1 <1>         0.034143 
     23 H           3.139787    3.540760    0.000053 H         1 <1>         0.030578 
     24 H           2.156216    4.736685   -0.895353 H         1 <1>         0.030578 
     25 H           2.156176    4.737136    0.894803 H         1 <1>         0.030578 
@<TRIPOS>BOND
     1    1    2 1    
     2    1   10 1    
     3    1   11 1    
     4    1   12 1    
     5    2    3 1    
     6    2   13 1    
     7    2   14 1    
     8    3    4 1    
     9    3   15 1    
    10    3   16 1    
    11    4    5 1    
    12    4   17 1    
    13    4   18 1    
    14    5    6 1    
    15    5   19 1    
    16    5   20 1    
    17    6    7 1    
    18    6   21 1    
    19    6   22 1    
    20    7    8 1    
    21    7    9 2    
    22    8   23 1    
    23    8   24 1    
    24    8   25 1    
@<TRIPOS>SUBSTRUCTURE
     1 ****        1 TEMP              0 ****  ****    0 ROOT 
@<TRIPOS>NORMAL
@<TRIPOS>FF_PBC
FORCE_FIELD_SETUP_FEATURE Force Field Setup information
v1.0  0 0.000000 0.000000 0.000000 0.000000 0.000000 0.000000 NONE 0 0 0 0 1 0 0 0 0 0 0 0 0
