@<TRIPOS>MOLECULE
MOL005224
  134   133     1     1     0
SMALL
GASTEIGER


@<TRIPOS>ATOM
      1 C          -0.683829    0.368215   -0.000117 C.3       1 <1>        -0.053057 
      2 C           0.683829   -0.368215    0.000117 C.3       1 <1>        -0.053057 
      3 C          -0.495600    1.910000    0.000122 C.3       1 <1>        -0.053057 
      4 C           0.495600   -1.910000   -0.000122 C.3       1 <1>        -0.053057 
      5 C          -1.862462    2.647799   -0.000115 C.3       1 <1>        -0.053057 
      6 C           1.862462   -2.647799    0.000115 C.3       1 <1>        -0.053057 
      7 C          -1.672501    4.189511    0.000117 C.3       1 <1>        -0.053057 
      8 C           1.672501   -4.189511   -0.000117 C.3       1 <1>        -0.053057 
      9 C          -3.038918    4.928135   -0.000116 C.3       1 <1>        -0.053057 
     10 C           3.038918   -4.928135    0.000116 C.3       1 <1>        -0.053057 
     11 C          -2.849623    6.469923    0.000120 C.3       1 <1>        -0.053057 
     12 C           2.849623   -6.469923   -0.000120 C.3       1 <1>        -0.053057 
     13 C          -4.216860    7.207132   -0.000116 C.3       1 <1>        -0.053057 
     14 C           4.216860   -7.207132    0.000116 C.3       1 <1>        -0.053057 
     15 C          -4.029503    8.749112    0.000119 C.3       1 <1>        -0.053057 
     16 C           4.029503   -8.749112   -0.000119 C.3       1 <1>        -0.053057 
     17 C          -5.397629    9.484777   -0.000118 C.3       1 <1>        -0.053057 
     18 C           5.397629   -9.484777    0.000118 C.3       1 <1>        -0.053057 
     19 C          -5.211539   11.026899    0.000119 C.3       1 <1>        -0.053057 
     20 C           5.211539  -11.026899   -0.000119 C.3       1 <1>        -0.053057 
     21 C          -6.579789   11.762339   -0.000115 C.3       1 <1>        -0.053057 
     22 C           6.579789  -11.762339    0.000115 C.3       1 <1>        -0.053057 
     23 C          -6.393024   13.304402    0.000121 C.3       1 <1>        -0.053057 
     24 C           6.393024  -13.304402   -0.000121 C.3       1 <1>        -0.053057 
     25 C          -7.760695   14.040868   -0.000120 C.3       1 <1>        -0.053057 
     26 C           7.760695  -14.040868    0.000120 C.3       1 <1>        -0.053057 
     27 C          -7.572831   15.582819    0.000119 C.3       1 <1>        -0.053057 
     28 C           7.572831  -15.582819   -0.000119 C.3       1 <1>        -0.053057 
     29 C          -8.940076   16.320076   -0.000117 C.3       1 <1>        -0.053057 
     30 C           8.940076  -16.320076    0.000117 C.3       1 <1>        -0.053057 
     31 C          -8.751183   17.861847    0.000113 C.3       1 <1>        -0.053057 
     32 C           8.751183  -17.861847   -0.000113 C.3       1 <1>        -0.053057 
     33 C         -10.117618   18.600647   -0.000121 C.3       1 <1>        -0.053057 
     34 C          10.117618  -18.600647    0.000121 C.3       1 <1>        -0.053057 
     35 C          -9.926198   20.142122    0.000114 C.3       1 <1>        -0.053057 
     36 C           9.926198  -20.142122   -0.000114 C.3       1 <1>        -0.053057 
     37 C         -11.290977   20.883882   -0.000120 C.3       1 <1>        -0.053065 
     38 C          11.290977  -20.883882    0.000120 C.3       1 <1>        -0.053065 
     39 C         -11.096216   22.424955    0.000117 C.3       1 <1>        -0.053306 
     40 C          11.096216  -22.424955   -0.000117 C.3       1 <1>        -0.053306 
     41 C         -12.459542   23.168727   -0.000113 C.3       1 <1>        -0.055911 
     42 C          12.459542  -23.168727    0.000113 C.3       1 <1>        -0.055911 
     43 C         -12.262198   24.707093    0.000078 C.3       1 <1>        -0.065276 
     44 C          12.262198  -24.707093   -0.000078 C.3       1 <1>        -0.065276 
     45 H          -1.257400    0.071344   -0.893595 H         1 <1>         0.026528 
     46 H          -1.257825    0.071123    0.893012 H         1 <1>         0.026528 
     47 H           1.257400   -0.071344    0.893595 H         1 <1>         0.026528 
     48 H           1.257825   -0.071123   -0.893012 H         1 <1>         0.026528 
     49 H           0.078052    2.206609    0.893631 H         1 <1>         0.026528 
     50 H           0.078481    2.206831   -0.893049 H         1 <1>         0.026528 
     51 H          -0.078052   -2.206609   -0.893631 H         1 <1>         0.026528 
     52 H          -0.078481   -2.206831    0.893049 H         1 <1>         0.026528 
     53 H          -2.436364    2.351499   -0.893605 H         1 <1>         0.026528 
     54 H          -2.436789    2.351281    0.893022 H         1 <1>         0.026528 
     55 H           2.436364   -2.351499    0.893605 H         1 <1>         0.026528 
     56 H           2.436789   -2.351281   -0.893022 H         1 <1>         0.026528 
     57 H          -1.098581    4.485713    0.893611 H         1 <1>         0.026528 
     58 H          -1.098158    4.485932   -0.893033 H         1 <1>         0.026528 
     59 H           1.098581   -4.485713   -0.893611 H         1 <1>         0.026528 
     60 H           1.098158   -4.485932    0.893033 H         1 <1>         0.026528 
     61 H          -3.612778    4.631849   -0.893609 H         1 <1>         0.026528 
     62 H          -3.613202    4.631629    0.893031 H         1 <1>         0.026528 
     63 H           3.612778   -4.631849    0.893609 H         1 <1>         0.026528 
     64 H           3.613202   -4.631629   -0.893031 H         1 <1>         0.026528 
     65 H          -2.275907    6.766540    0.893596 H         1 <1>         0.026528 
     66 H          -2.275482    6.766760   -0.893013 H         1 <1>         0.026528 
     67 H           2.275907   -6.766540   -0.893596 H         1 <1>         0.026528 
     68 H           2.275482   -6.766760    0.893013 H         1 <1>         0.026528 
     69 H          -4.790429    6.910215   -0.893601 H         1 <1>         0.026528 
     70 H          -4.790853    6.909997    0.893024 H         1 <1>         0.026528 
     71 H           4.790429   -6.910215    0.893601 H         1 <1>         0.026528 
     72 H           4.790853   -6.909997   -0.893024 H         1 <1>         0.026528 
     73 H          -3.456072    9.046281    0.893621 H         1 <1>         0.026528 
     74 H          -3.455647    9.046500   -0.893042 H         1 <1>         0.026528 
     75 H           3.456072   -9.046281   -0.893621 H         1 <1>         0.026528 
     76 H           3.455647   -9.046500    0.893042 H         1 <1>         0.026528 
     77 H          -5.970903    9.187337   -0.893626 H         1 <1>         0.026528 
     78 H          -5.971329    9.187115    0.893042 H         1 <1>         0.026528 
     79 H           5.970903   -9.187337    0.893626 H         1 <1>         0.026528 
     80 H           5.971329   -9.187115   -0.893042 H         1 <1>         0.026528 
     81 H          -4.638266   11.324352    0.893614 H         1 <1>         0.026528 
     82 H          -4.637838   11.324573   -0.893028 H         1 <1>         0.026528 
     83 H           4.638266  -11.324352   -0.893614 H         1 <1>         0.026528 
     84 H           4.637838  -11.324573    0.893028 H         1 <1>         0.026528 
     85 H          -7.153125   11.464945   -0.893601 H         1 <1>         0.026528 
     86 H          -7.153550   11.464725    0.893016 H         1 <1>         0.026528 
     87 H           7.153125  -11.464945    0.893601 H         1 <1>         0.026528 
     88 H           7.153550  -11.464725   -0.893016 H         1 <1>         0.026528 
     89 H          -5.819595   13.601546    0.893633 H         1 <1>         0.026528 
     90 H          -5.819167   13.601767   -0.893052 H         1 <1>         0.026528 
     91 H           5.819595  -13.601546   -0.893633 H         1 <1>         0.026528 
     92 H           5.819167  -13.601767    0.893052 H         1 <1>         0.026528 
     93 H          -8.334216   13.743954   -0.893648 H         1 <1>         0.026528 
     94 H          -8.334643   13.743733    0.893065 H         1 <1>         0.026528 
     95 H           8.334216  -13.743954    0.893648 H         1 <1>         0.026528 
     96 H           8.334643  -13.743733   -0.893065 H         1 <1>         0.026528 
     97 H          -6.999156   15.879647    0.893578 H         1 <1>         0.026528 
     98 H          -6.998730   15.879868   -0.892999 H         1 <1>         0.026528 
     99 H           6.999156  -15.879647   -0.893578 H         1 <1>         0.026528 
    100 H           6.998730  -15.879868    0.892999 H         1 <1>         0.026528 
    101 H          -9.513763   16.023449   -0.893610 H         1 <1>         0.026528 
    102 H          -9.514186   16.023231    0.893028 H         1 <1>         0.026528 
    103 H           9.513763  -16.023449    0.893610 H         1 <1>         0.026528 
    104 H           9.514186  -16.023231   -0.893028 H         1 <1>         0.026528 
    105 H          -8.177238   18.158050    0.893593 H         1 <1>         0.026528 
    106 H          -8.176814   18.158267   -0.893014 H         1 <1>         0.026528 
    107 H           8.177238  -18.158050   -0.893593 H         1 <1>         0.026528 
    108 H           8.176814  -18.158267    0.893014 H         1 <1>         0.026528 
    109 H         -10.691747   18.304820   -0.893575 H         1 <1>         0.026528 
    110 H         -10.692174   18.304600    0.892987 H         1 <1>         0.026528 
    111 H          10.691747  -18.304820    0.893575 H         1 <1>         0.026528 
    112 H          10.692174  -18.304600   -0.892987 H         1 <1>         0.026528 
    113 H          -9.351722   20.437348    0.893537 H         1 <1>         0.026528 
    114 H          -9.351296   20.437568   -0.892963 H         1 <1>         0.026528 
    115 H           9.351722  -20.437348   -0.893537 H         1 <1>         0.026528 
    116 H           9.351296  -20.437568    0.892963 H         1 <1>         0.026528 
    117 H         -11.865780   20.589450   -0.893614 H         1 <1>         0.026528 
    118 H         -11.866209   20.589227    0.893028 H         1 <1>         0.026528 
    119 H          11.865780  -20.589450    0.893614 H         1 <1>         0.026528 
    120 H          11.866209  -20.589227   -0.893028 H         1 <1>         0.026528 
    121 H         -10.521667   22.719963    0.893583 H         1 <1>         0.026520 
    122 H         -10.521236   22.720186   -0.893003 H         1 <1>         0.026520 
    123 H          10.521667  -22.719963   -0.893583 H         1 <1>         0.026520 
    124 H          10.521236  -22.720186    0.893003 H         1 <1>         0.026520 
    125 H         -13.037631   22.879891   -0.893766 H         1 <1>         0.026265 
    126 H         -13.038065   22.879666    0.893202 H         1 <1>         0.026265 
    127 H          13.037631  -22.879891    0.893766 H         1 <1>         0.026265 
    128 H          13.038065  -22.879666   -0.893202 H         1 <1>         0.026265 
    129 H         -13.239729   25.214833    0.000009 H         1 <1>         0.022978 
    130 H         -11.703946   25.022851    0.895198 H         1 <1>         0.022978 
    131 H         -11.703443   25.023054   -0.894678 H         1 <1>         0.022978 
    132 H          13.239729  -25.214833   -0.000009 H         1 <1>         0.022978 
    133 H          11.703946  -25.022851   -0.895198 H         1 <1>         0.022978 
    134 H          11.703443  -25.023054    0.894678 H         1 <1>         0.022978 
@<TRIPOS>BOND
     1    1    2 1    
     2    1    3 1    
     3    1   45 1    
     4    1   46 1    
     5    2    4 1    
     6    2   47 1    
     7    2   48 1    
     8    3    5 1    
     9    3   49 1    
    10    3   50 1    
    11    4    6 1    
    12    4   51 1    
    13    4   52 1    
    14    5    7 1    
    15    5   53 1    
    16    5   54 1    
    17    6    8 1    
    18    6   55 1    
    19    6   56 1    
    20    7    9 1    
    21    7   57 1    
    22    7   58 1    
    23    8   10 1    
    24    8   59 1    
    25    8   60 1    
    26    9   11 1    
    27    9   61 1    
    28    9   62 1    
    29   10   12 1    
    30   10   63 1    
    31   10   64 1    
    32   11   13 1    
    33   11   65 1    
    34   11   66 1    
    35   12   14 1    
    36   12   67 1    
    37   12   68 1    
    38   13   15 1    
    39   13   69 1    
    40   13   70 1    
    41   14   16 1    
    42   14   71 1    
    43   14   72 1    
    44   15   17 1    
    45   15   73 1    
    46   15   74 1    
    47   16   18 1    
    48   16   75 1    
    49   16   76 1    
    50   17   19 1    
    51   17   77 1    
    52   17   78 1    
    53   18   20 1    
    54   18   79 1    
    55   18   80 1    
    56   19   21 1    
    57   19   81 1    
    58   19   82 1    
    59   20   22 1    
    60   20   83 1    
    61   20   84 1    
    62   21   23 1    
    63   21   85 1    
    64   21   86 1    
    65   22   24 1    
    66   22   87 1    
    67   22   88 1    
    68   23   25 1    
    69   23   89 1    
    70   23   90 1    
    71   24   26 1    
    72   24   91 1    
    73   24   92 1    
    74   25   27 1    
    75   25   93 1    
    76   25   94 1    
    77   26   28 1    
    78   26   95 1    
    79   26   96 1    
    80   27   29 1    
    81   27   97 1    
    82   27   98 1    
    83   28   30 1    
    84   28   99 1    
    85   28  100 1    
    86   29   31 1    
    87   29  101 1    
    88   29  102 1    
    89   30   32 1    
    90   30  103 1    
    91   30  104 1    
    92   31   33 1    
    93   31  105 1    
    94   31  106 1    
    95   32   34 1    
    96   32  107 1    
    97   32  108 1    
    98   33   35 1    
    99   33  109 1    
   100   33  110 1    
   101   34   36 1    
   102   34  111 1    
   103   34  112 1    
   104   35   37 1    
   105   35  113 1    
   106   35  114 1    
   107   36   38 1    
   108   36  115 1    
   109   36  116 1    
   110   37   39 1    
   111   37  117 1    
   112   37  118 1    
   113   38   40 1    
   114   38  119 1    
   115   38  120 1    
   116   39   41 1    
   117   39  121 1    
   118   39  122 1    
   119   40   42 1    
   120   40  123 1    
   121   40  124 1    
   122   41   43 1    
   123   41  125 1    
   124   41  126 1    
   125   42   44 1    
   126   42  127 1    
   127   42  128 1    
   128   43  129 1    
   129   43  130 1    
   130   43  131 1    
   131   44  132 1    
   132   44  133 1    
   133   44  134 1    
@<TRIPOS>SUBSTRUCTURE
     1 ****        1 TEMP              0 ****  ****    0 ROOT 
@<TRIPOS>NORMAL
@<TRIPOS>FF_PBC
FORCE_FIELD_SETUP_FEATURE Force Field Setup information
v1.0  0 0.000000 0.000000 0.000000 0.000000 0.000000 0.000000 NONE 0 0 0 0 1 0 0 0 0 0 0 0 0
