@<TRIPOS>MOLECULE
MOL000266
   39    41     1     1     0
SMALL
GASTEIGER


@<TRIPOS>ATOM
      1 C           1.095215    0.636081   -0.483084 C.3       1 <1>        -0.015974 
      2 C           1.666449    1.120039   -1.844847 C.3       1 <1>        -0.042603 
      3 C           1.532631   -0.058544   -2.843038 C.3       1 <1>        -0.031168 
      4 C           1.474464   -1.234902   -1.910108 C.2       1 <1>        -0.072676 
      5 C           0.914237   -0.890258   -0.560213 C.3       1 <1>        -0.010358 
      6 C          -0.332440    0.035699   -0.520799 C.3       1 <1>        -0.024485 
      7 C          -1.180497   -0.120437    0.776425 C.3       1 <1>        -0.034775 
      8 C          -0.786694    0.992230    1.782212 C.3       1 <1>        -0.049429 
      9 C           0.731356    0.924500    2.076324 C.3       1 <1>        -0.049661 
     10 C           1.565965    1.325142    0.831092 C.3       1 <1>        -0.037370 
     11 C           3.073241    1.072618    1.119218 C.3       1 <1>        -0.061883 
     12 C          -2.704832   -0.128444    0.420021 C.3       1 <1>        -0.043598 
     13 C          -3.067004   -1.401630   -0.402783 C.3       1 <1>        -0.062405 
     14 C          -3.628450   -0.069826    1.671440 C.3       1 <1>        -0.062405 
     15 C           1.885393   -2.465352   -2.235753 C.2       1 <1>        -0.099157 
     16 H           1.280740   -1.403471    0.340801 H         1 <1>         0.035401 
     17 H          -0.847866    0.234365   -1.471633 H         1 <1>         0.031503 
     18 H           1.141401    2.023153   -2.193624 H         1 <1>         0.027398 
     19 H           2.733553    1.358816   -1.736877 H         1 <1>         0.027398 
     20 H           2.367169   -0.108986   -3.561288 H         1 <1>         0.031017 
     21 H           0.585853   -0.003098   -3.402744 H         1 <1>         0.031017 
     22 H          -0.963741   -1.091880    1.251288 H         1 <1>         0.030629 
     23 H          -1.059809    1.981981    1.382234 H         1 <1>         0.026819 
     24 H          -1.304274    0.844261    2.743392 H         1 <1>         0.026819 
     25 H           0.968975    1.617839    2.901541 H         1 <1>         0.026811 
     26 H           0.997827   -0.090363    2.412226 H         1 <1>         0.026811 
     27 H           1.418671    2.406348    0.667318 H         1 <1>         0.030373 
     28 H           3.357683    1.524992    2.081991 H         1 <1>         0.023259 
     29 H           3.275011   -0.007852    1.170329 H         1 <1>         0.023259 
     30 H           3.721204    1.511918    0.348103 H         1 <1>         0.023259 
     31 H          -2.927636    0.761353   -0.194627 H         1 <1>         0.029823 
     32 H          -2.455258   -1.499584   -1.310883 H         1 <1>         0.023242 
     33 H          -4.122265   -1.370051   -0.715964 H         1 <1>         0.023242 
     34 H          -2.916245   -2.304192    0.209313 H         1 <1>         0.023242 
     35 H          -3.565978    0.907729    2.172643 H         1 <1>         0.023242 
     36 H          -4.681123   -0.214333    1.382595 H         1 <1>         0.023242 
     37 H          -3.354068   -0.859614    2.387509 H         1 <1>         0.023242 
     38 H           1.821933   -3.279507   -1.514562 H         1 <1>         0.053449 
     39 H           2.289107   -2.677140   -3.225188 H         1 <1>         0.053449 
@<TRIPOS>BOND
     1    1    2 1    
     2    1    5 1    
     3    1    6 1    
     4    1   10 1    
     5    2    3 1    
     6    2   18 1    
     7    2   19 1    
     8    3    4 1    
     9    3   20 1    
    10    3   21 1    
    11    4    5 1    
    12    4   15 2    
    13    5    6 1    
    14    5   16 1    
    15    6    7 1    
    16    6   17 1    
    17    7    8 1    
    18    7   12 1    
    19    7   22 1    
    20    8    9 1    
    21    8   23 1    
    22    8   24 1    
    23    9   10 1    
    24    9   25 1    
    25    9   26 1    
    26   10   11 1    
    27   10   27 1    
    28   11   28 1    
    29   11   29 1    
    30   11   30 1    
    31   12   13 1    
    32   12   14 1    
    33   12   31 1    
    34   13   32 1    
    35   13   33 1    
    36   13   34 1    
    37   14   35 1    
    38   14   36 1    
    39   14   37 1    
    40   15   38 1    
    41   15   39 1    
@<TRIPOS>SUBSTRUCTURE
     1 ****        1 TEMP              0 ****  ****    0 ROOT 
@<TRIPOS>NORMAL
@<TRIPOS>FF_PBC
FORCE_FIELD_SETUP_FEATURE Force Field Setup information
v1.0  0 0.000000 0.000000 0.000000 0.000000 0.000000 0.000000 NONE 0 0 0 0 1 0 0 0 0 0 0 0 0
