@<TRIPOS>MOLECULE
MOL002233
   58    58     1     1     0
SMALL
GASTEIGER


@<TRIPOS>ATOM
      1 C           8.428897    4.395517    2.819462 C.ar      1 <1>         0.008932 
      2 C           8.973862    3.133016    3.184537 C.ar      1 <1>         0.078175 
      3 C           8.066748    1.991693    3.468683 C.ar      1 <1>        -0.028339 
      4 C           6.670867    2.147846    3.379504 C.ar      1 <1>        -0.042484 
      5 C           6.111776    3.462531    2.985216 C.ar      1 <1>        -0.028339 
      6 C           6.953337    4.548574    2.707703 C.ar      1 <1>         0.078175 
      7 C           9.352566    5.590217    2.548284 C.3       1 <1>        -0.034822 
      8 O           6.382650    5.764140    2.329098 O.3       1 <1>        -0.359479 
      9 O          10.359838    2.978936    3.275399 O.3       1 <1>        -0.359479 
     10 C           2.727017   -3.584809   -0.764361 C.3       1 <1>        -0.034751 
     11 C           3.661552   -2.692563   -1.551139 C.2       1 <1>        -0.087640 
     12 C           3.317591   -1.556578   -2.178202 C.2       1 <1>        -0.084202 
     13 C           1.921312   -0.979230   -2.231071 C.3       1 <1>        -0.016545 
     14 C           1.770456   -0.039926   -3.408462 C.2       1 <1>        -0.084202 
     15 C           0.812097   -0.102878   -4.346025 C.2       1 <1>        -0.087649 
     16 C          -0.298092   -1.128453   -4.371278 C.3       1 <1>        -0.035000 
     17 C          -1.319755   -0.857974   -5.509081 C.3       1 <1>        -0.052469 
     18 C          -2.468445   -1.900471   -5.497477 C.3       1 <1>        -0.064998 
     19 C           3.384423   -4.184881    0.511133 C.3       1 <1>        -0.049616 
     20 C           3.493046   -3.184976    1.698740 C.3       1 <1>        -0.052779 
     21 C           4.399445   -1.958073    1.405375 C.3       1 <1>        -0.053038 
     22 C           4.611710   -1.100322    2.683057 C.3       1 <1>        -0.052761 
     23 C           5.526887    0.122704    2.403022 C.3       1 <1>        -0.049059 
     24 C           5.734418    0.971727    3.684022 C.3       1 <1>        -0.027519 
     25 H           8.481313    1.029772    3.749146 H         1 <1>         0.064603 
     26 H           5.038232    3.593191    2.903225 H         1 <1>         0.064603 
     27 H           8.948944    6.489802    3.036684 H         1 <1>         0.027913 
     28 H           9.412571    5.759644    1.463207 H         1 <1>         0.027913 
     29 H          10.368509    5.421903    2.935354 H         1 <1>         0.027913 
     30 H           6.867371    6.194021    1.634240 H         1 <1>         0.217326 
     31 H          10.634756    2.102380    3.518116 H         1 <1>         0.217326 
     32 H           1.802529   -3.074822   -0.456235 H         1 <1>         0.030732 
     33 H           2.453235   -4.409274   -1.442762 H         1 <1>         0.030732 
     34 H           4.705245   -3.007195   -1.613341 H         1 <1>         0.056905 
     35 H           4.112114   -1.006360   -2.686659 H         1 <1>         0.057203 
     36 H           1.751591   -0.402147   -1.309289 H         1 <1>         0.034961 
     37 H           1.182218   -1.789189   -2.275933 H         1 <1>         0.034961 
     38 H           2.509867    0.759525   -3.492589 H         1 <1>         0.057203 
     39 H           0.835958    0.640604   -5.145520 H         1 <1>         0.056905 
     40 H           0.141291   -2.128978   -4.512717 H         1 <1>         0.030724 
     41 H          -0.833702   -1.103554   -3.408795 H         1 <1>         0.030724 
     42 H          -1.748160    0.151032   -5.385599 H         1 <1>         0.026558 
     43 H          -0.804141   -0.898532   -6.483422 H         1 <1>         0.026558 
     44 H          -3.178357   -1.691748   -6.313563 H         1 <1>         0.022987 
     45 H          -2.066814   -2.916722   -5.634009 H         1 <1>         0.022987 
     46 H          -3.013870   -1.861432   -4.541530 H         1 <1>         0.022987 
     47 H           2.757359   -5.027309    0.851840 H         1 <1>         0.026822 
     48 H           4.379250   -4.593619    0.269509 H         1 <1>         0.026822 
     49 H           3.910755   -3.732859    2.560390 H         1 <1>         0.026538 
     50 H           2.486349   -2.833702    1.979970 H         1 <1>         0.026538 
     51 H           3.932638   -1.321773    0.637718 H         1 <1>         0.026529 
     52 H           5.376073   -2.305211    1.030499 H         1 <1>         0.026529 
     53 H           5.073913   -1.720958    3.468189 H         1 <1>         0.026538 
     54 H           3.633836   -0.748996    3.051557 H         1 <1>         0.026538 
     55 H           5.074769    0.754715    1.620720 H         1 <1>         0.026840 
     56 H           6.507129   -0.227790    2.039414 H         1 <1>         0.026840 
     57 H           6.170867    0.353139    4.484445 H         1 <1>         0.031319 
     58 H           4.766258    1.353668    4.045303 H         1 <1>         0.031319 
@<TRIPOS>BOND
     1    2    1 2    
     2    6    1 1    
     3    1    7 1    
     4    3    2 1    
     5    2    9 1    
     6    4    3 2    
     7    3   25 1    
     8    4    5 1    
     9   24    4 1    
    10    5    6 2    
    11    5   26 1    
    12    6    8 1    
    13    7   27 1    
    14    7   28 1    
    15    7   29 1    
    16    8   30 1    
    17    9   31 1    
    18   10   11 1    
    19   19   10 1    
    20   10   32 1    
    21   10   33 1    
    22   11   12 2    
    23   11   34 1    
    24   12   13 1    
    25   12   35 1    
    26   13   14 1    
    27   13   36 1    
    28   13   37 1    
    29   14   15 2    
    30   14   38 1    
    31   15   16 1    
    32   15   39 1    
    33   16   17 1    
    34   16   40 1    
    35   16   41 1    
    36   17   18 1    
    37   17   42 1    
    38   17   43 1    
    39   18   44 1    
    40   18   45 1    
    41   18   46 1    
    42   20   19 1    
    43   19   47 1    
    44   19   48 1    
    45   21   20 1    
    46   20   49 1    
    47   20   50 1    
    48   22   21 1    
    49   21   51 1    
    50   21   52 1    
    51   23   22 1    
    52   22   53 1    
    53   22   54 1    
    54   23   24 1    
    55   23   55 1    
    56   23   56 1    
    57   24   57 1    
    58   24   58 1    
@<TRIPOS>SUBSTRUCTURE
     1 ****       10 TEMP              0 ****  ****    0 ROOT 
@<TRIPOS>NORMAL
@<TRIPOS>FF_PBC
FORCE_FIELD_SETUP_FEATURE Force Field Setup information
v1.0  0 0.000000 0.000000 0.000000 0.000000 0.000000 0.000000 NONE 0 0 0 0 1 0 0 0 0 0 0 0 0
