@<TRIPOS>MOLECULE
MOL001132
   39    41     1     1     0
SMALL
GASTEIGER


@<TRIPOS>ATOM
      1 C           2.418621    0.991273    0.257567 C.3       1 <1>        -0.052044 
      2 C           2.419359   -0.438538    0.840396 C.3       1 <1>        -0.047574 
      3 C           1.394299   -1.406245    0.175139 C.3       1 <1>        -0.031217 
      4 C          -0.061404   -0.847039    0.054751 C.3       1 <1>        -0.025249 
      5 C          -0.598471   -0.017637    1.254408 C.3       1 <1>        -0.027774 
      6 C          -0.237341    1.293987    0.488150 C.3       1 <1>        -0.021903 
      7 C           1.208892    1.829482    0.748005 C.3       1 <1>        -0.046782 
      8 C           1.342875   -2.687447    1.068676 C.3       1 <1>        -0.059532 
      9 C           1.880050   -1.853098   -1.239861 C.3       1 <1>        -0.059532 
     10 C          -0.370380    0.425977   -0.789515 C.3       1 <1>        -0.010905 
     11 C          -1.846297    0.307138   -1.123439 C.2       1 <1>        -0.072627 
     12 C          -2.690621   -0.034212   -0.135329 C.2       1 <1>        -0.084447 
     13 C          -2.140633   -0.248832    1.264524 C.3       1 <1>        -0.030867 
     14 C          -1.212455    2.509289    0.644023 C.3       1 <1>        -0.058738 
     15 C          -2.263149    0.574403   -2.547383 C.3       1 <1>        -0.043497 
     16 H           3.330562    1.501843    0.615773 H         1 <1>         0.026563 
     17 H           2.483141    0.978584   -0.839263 H         1 <1>         0.026563 
     18 H           2.249660   -0.362160    1.925832 H         1 <1>         0.027052 
     19 H           3.427978   -0.865186    0.710059 H         1 <1>         0.027052 
     20 H          -0.694633   -1.701375   -0.244854 H         1 <1>         0.031477 
     21 H          -0.127089   -0.161060    2.238084 H         1 <1>         0.031218 
     22 H           1.303097    1.997788    1.833438 H         1 <1>         0.027079 
     23 H           1.326436    2.808910    0.254844 H         1 <1>         0.027079 
     24 H           0.707629   -3.467828    0.621778 H         1 <1>         0.023508 
     25 H           2.349964   -3.112537    1.201145 H         1 <1>         0.023508 
     26 H           0.936661   -2.455138    2.064713 H         1 <1>         0.023508 
     27 H           1.179497   -2.581894   -1.675724 H         1 <1>         0.023508 
     28 H           2.868545   -2.333585   -1.179234 H         1 <1>         0.023508 
     29 H           1.958870   -1.014224   -1.942720 H         1 <1>         0.023508 
     30 H           0.273993    0.673957   -1.643839 H         1 <1>         0.035383 
     31 H          -3.759361   -0.150936   -0.315328 H         1 <1>         0.057172 
     32 H          -2.354364   -1.280742    1.585078 H         1 <1>         0.031034 
     33 H          -2.621340    0.433218    1.982543 H         1 <1>         0.031034 
     34 H          -0.956655    3.277678   -0.101044 H         1 <1>         0.023534 
     35 H          -1.082901    2.940626    1.648137 H         1 <1>         0.023534 
     36 H          -2.282232    2.310152    0.515327 H         1 <1>         0.023534 
     37 H          -1.978838    1.600944   -2.823257 H         1 <1>         0.027445 
     38 H          -3.349368    0.462989   -2.684086 H         1 <1>         0.027445 
     39 H          -1.751018   -0.132211   -3.217550 H         1 <1>         0.027445 
@<TRIPOS>BOND
     1    1    2 1    
     2    1    7 1    
     3    1   16 1    
     4    1   17 1    
     5    2    3 1    
     6    2   18 1    
     7    2   19 1    
     8    3    4 1    
     9    3    8 1    
    10    3    9 1    
    11    4    5 1    
    12    4   10 1    
    13    4   20 1    
    14    5    6 1    
    15    5   13 1    
    16    5   21 1    
    17    6    7 1    
    18    6   10 1    
    19    6   14 1    
    20    7   22 1    
    21    7   23 1    
    22    8   24 1    
    23    8   25 1    
    24    8   26 1    
    25    9   27 1    
    26    9   28 1    
    27    9   29 1    
    28   10   11 1    
    29   10   30 1    
    30   11   12 2    
    31   11   15 1    
    32   12   13 1    
    33   12   31 1    
    34   13   32 1    
    35   13   33 1    
    36   14   34 1    
    37   14   35 1    
    38   14   36 1    
    39   15   37 1    
    40   15   38 1    
    41   15   39 1    
@<TRIPOS>SUBSTRUCTURE
     1 ****        1 TEMP              0 ****  ****    0 ROOT 
@<TRIPOS>NORMAL
@<TRIPOS>FF_PBC
FORCE_FIELD_SETUP_FEATURE Force Field Setup information
v1.0  0 0.000000 0.000000 0.000000 0.000000 0.000000 0.000000 NONE 0 0 0 0 1 0 0 0 0 0 0 0 0
