@<TRIPOS>MOLECULE
MOL012980
   80    83     1     1     0
SMALL
GASTEIGER


@<TRIPOS>ATOM
      1 C           1.643634    2.721000    2.226657 C.ar      1 <1>        -0.029191 
      2 C           2.321521    2.233183    1.007954 C.ar      1 <1>         0.077352 
      3 C           3.304551    1.335590    1.106239 C.ar      1 <1>        -0.022008 
      4 C           3.759262    0.841136    2.429144 C.ar      1 <1>         0.008563 
      5 C           3.148509    1.269475    3.546865 C.ar      1 <1>         0.083127 
      6 C           2.034528    2.254395    3.431789 C.ar      1 <1>        -0.028673 
      7 O           1.984659    2.712039   -0.256695 O.3       1 <1>        -0.339075 
      8 N           4.186993   -1.392973    0.624556 N.am      1 <1>        -0.290407 
      9 C           0.816577    2.175606   -0.897129 C.3       1 <1>         0.093591 
     10 C           4.940932   -0.102531    2.469628 C.2       1 <1>        -0.038153 
     11 C           5.136869   -1.020385    1.515445 C.2       1 <1>        -0.003049 
     12 C           2.920738   -1.686700    1.014228 C.2       1 <1>         0.237368 
     13 N          -0.256295    0.633608   -1.986240 N.am      1 <1>        -0.286020 
     14 C           0.903303    2.484576   -2.425804 C.3       1 <1>        -0.007985 
     15 C           0.211277    1.311548   -3.181443 C.3       1 <1>         0.018031 
     16 C           0.412330   -0.096165    0.397006 C.2       1 <1>         0.236729 
     17 C           0.716239    0.632693   -0.888325 C.3       1 <1>         0.128701 
     18 N           0.621681   -1.417771    0.606594 N.am      1 <1>        -0.302128 
     19 C          -1.597680    0.400806   -1.897586 C.2       1 <1>         0.233803 
     20 C           1.792508   -2.183901    0.122832 C.3       1 <1>         0.102250 
     21 C           2.118360   -2.560890   -1.367168 C.3       1 <1>        -0.017135 
     22 N          -3.418291   -0.576714   -0.485095 N.3       1 <1>        -0.297375 
     23 C          -2.502714    0.592387   -0.686002 C.3       1 <1>         0.090963 
     24 C           2.675507    0.608838    5.879309 C.3       1 <1>         0.043051 
     25 O          -0.048000    0.560098    1.319705 O.2       1 <1>        -0.273659 
     26 C          -4.513877   -0.488194    0.523738 C.3       1 <1>        -0.012324 
     27 C          -2.658531   -1.838293   -0.242607 C.3       1 <1>        -0.012324 
     28 O           2.622104   -1.621132    2.193008 O.2       1 <1>        -0.273437 
     29 O          -2.191131    0.095225   -2.921546 O.2       1 <1>        -0.273847 
     30 O           3.589275    0.787948    4.785005 O.3       1 <1>        -0.347323 
     31 C           0.823271   -2.671025   -2.224736 C.3       1 <1>        -0.060281 
     32 C           2.849652   -3.943269   -1.521750 C.3       1 <1>        -0.051175 
     33 C           4.162864   -4.199244   -0.718875 C.3       1 <1>        -0.064964 
     34 C          -3.086235    2.041621   -0.890735 C.3       1 <1>        -0.003516 
     35 C          -4.603930    2.127968   -1.016165 C.ar      1 <1>        -0.045413 
     36 C          -5.365712    3.018971   -0.103819 C.ar      1 <1>        -0.058511 
     37 C          -6.763343    3.031672   -0.135573 C.ar      1 <1>        -0.061501 
     38 C          -7.487732    2.170814   -1.100473 C.ar      1 <1>        -0.061742 
     39 C          -6.767042    1.368767   -1.998084 C.ar      1 <1>        -0.061501 
     40 C          -5.286239    1.360563   -1.968274 C.ar      1 <1>        -0.058511 
     41 H           0.848945    3.456766    2.133138 H         1 <1>         0.064408 
     42 H           3.779944    0.997559    0.193680 H         1 <1>         0.064999 
     43 H           1.530086    2.619195    4.314181 H         1 <1>         0.064426 
     44 H           4.481442   -1.563339   -0.307045 H         1 <1>         0.154295 
     45 H          -0.098214    2.611514   -0.456505 H         1 <1>         0.062512 
     46 H           5.684158    0.023891    3.259586 H         1 <1>         0.063669 
     47 H           6.114308   -1.506112    1.441419 H         1 <1>         0.078218 
     48 H           0.466763    3.469533   -2.671386 H         1 <1>         0.030620 
     49 H           1.961688    2.493454   -2.726261 H         1 <1>         0.030620 
     50 H           0.893029    0.648960   -3.746436 H         1 <1>         0.046548 
     51 H          -0.582712    1.700554   -3.844488 H         1 <1>         0.046548 
     52 H           1.691516    0.248237   -1.222064 H         1 <1>         0.062298 
     53 H           0.173332   -1.773313    1.434288 H         1 <1>         0.149518 
     54 H           1.605990   -3.192230    0.528372 H         1 <1>         0.059722 
     55 H           2.751741   -1.783109   -1.814888 H         1 <1>         0.032060 
     56 H          -1.981339    0.651192    0.264133 H         1 <1>         0.056160 
     57 H           3.221447    0.093857    6.683301 H         1 <1>         0.052870 
     58 H           2.325859    1.574250    6.267623 H         1 <1>         0.052870 
     59 H           1.819902   -0.014148    5.580327 H         1 <1>         0.052870 
     60 H          -5.320839    0.208386    0.281185 H         1 <1>         0.039072 
     61 H          -4.109182   -0.212896    1.508546 H         1 <1>         0.039072 
     62 H          -5.020204   -1.460732    0.618703 H         1 <1>         0.039072 
     63 H          -2.343963   -1.912678    0.812650 H         1 <1>         0.039072 
     64 H          -3.324016   -2.685487   -0.472270 H         1 <1>         0.039072 
     65 H          -1.758385   -1.948225   -0.865600 H         1 <1>         0.039072 
     66 H           0.297801   -1.712535   -2.276520 H         1 <1>         0.023311 
     67 H           1.040642   -2.977370   -3.263555 H         1 <1>         0.023311 
     68 H           0.137842   -3.413065   -1.791166 H         1 <1>         0.023311 
     69 H           2.155027   -4.747080   -1.235487 H         1 <1>         0.026590 
     70 H           3.094678   -4.081160   -2.584670 H         1 <1>         0.026590 
     71 H           4.464817   -5.253763   -0.813570 H         1 <1>         0.022987 
     72 H           4.023981   -4.009764    0.353443 H         1 <1>         0.022987 
     73 H           5.017093   -3.613655   -1.083581 H         1 <1>         0.022987 
     74 H          -2.759264    2.694798   -0.062720 H         1 <1>         0.033308 
     75 H          -2.714965    2.529876   -1.806570 H         1 <1>         0.033308 
     76 H          -4.835773    3.664417    0.593651 H         1 <1>         0.062030 
     77 H          -7.322336    3.671319    0.539047 H         1 <1>         0.061766 
     78 H          -8.571741    2.173462   -1.103405 H         1 <1>         0.061758 
     79 H          -7.291961    0.743757   -2.712220 H         1 <1>         0.061766 
     80 H          -4.737283    0.740158   -2.670002 H         1 <1>         0.062030 
@<TRIPOS>BOND
     1    2    1 1    
     2    1    6 2    
     3    1   41 1    
     4    2    3 2    
     5    7    2 1    
     6    3    4 1    
     7    3   42 1    
     8    4    5 2    
     9    4   10 1    
    10    6    5 1    
    11    5   30 1    
    12    6   43 1    
    13    9    7 1    
    14   11    8 1    
    15    8   12 1    
    16    8   44 1    
    17    9   14 1    
    18   17    9 1    
    19    9   45 1    
    20   10   11 2    
    21   10   46 1    
    22   11   47 1    
    23   12   20 1    
    24   12   28 2    
    25   13   15 1    
    26   13   17 1    
    27   13   19 1    
    28   14   15 1    
    29   14   48 1    
    30   14   49 1    
    31   15   50 1    
    32   15   51 1    
    33   17   16 1    
    34   16   18 1    
    35   16   25 2    
    36   17   52 1    
    37   18   20 1    
    38   18   53 1    
    39   19   23 1    
    40   19   29 2    
    41   20   21 1    
    42   20   54 1    
    43   21   31 1    
    44   21   32 1    
    45   21   55 1    
    46   23   22 1    
    47   22   26 1    
    48   22   27 1    
    49   23   34 1    
    50   23   56 1    
    51   30   24 1    
    52   24   57 1    
    53   24   58 1    
    54   24   59 1    
    55   26   60 1    
    56   26   61 1    
    57   26   62 1    
    58   27   63 1    
    59   27   64 1    
    60   27   65 1    
    61   31   66 1    
    62   31   67 1    
    63   31   68 1    
    64   32   33 1    
    65   32   69 1    
    66   32   70 1    
    67   33   71 1    
    68   33   72 1    
    69   33   73 1    
    70   34   35 1    
    71   34   74 1    
    72   34   75 1    
    73   35   36 1    
    74   35   40 2    
    75   36   37 2    
    76   36   76 1    
    77   37   38 1    
    78   37   77 1    
    79   38   39 2    
    80   38   78 1    
    81   39   40 1    
    82   39   79 1    
    83   40   80 1    
@<TRIPOS>SUBSTRUCTURE
     1 ****       13 TEMP              0 ****  ****    0 ROOT 
@<TRIPOS>NORMAL
@<TRIPOS>FF_PBC
FORCE_FIELD_SETUP_FEATURE Force Field Setup information
v1.0  0 0.000000 0.000000 0.000000 0.000000 0.000000 0.000000 NONE 0 0 0 0 1 0 0 0 0 0 0 0 0
