@<TRIPOS>MOLECULE
MOL002150
   26    28     1     1     0
SMALL
GASTEIGER


@<TRIPOS>ATOM
      1 C          -1.416757   -0.017048   -0.001705 C.ar      1 <1>         0.214544 
      2 C          -2.888752   -0.178698    0.005045 C.ar      1 <1>         0.010305 
      3 C          -3.694173    0.996408   -0.067762 C.ar      1 <1>        -0.055506 
      4 C          -3.062122    2.339780   -0.147793 C.ar      1 <1>        -0.060769 
      5 C          -1.643755    2.468504   -0.152676 C.ar      1 <1>        -0.047523 
      6 C          -0.841199    1.228160   -0.075936 C.ar      1 <1>         0.059683 
      7 C           0.622925    1.039412   -0.061537 C.ar      1 <1>         0.063308 
      8 C           0.864919   -0.412501    0.026821 C.ar      1 <1>         0.243527 
      9 N          -0.420462   -1.000382    0.059916 N.ar      1 <1>        -0.202073 
     10 C           1.649607    1.959660   -0.115152 C.ar      1 <1>        -0.029318 
     11 C           3.025477    1.411263   -0.079206 C.ar      1 <1>         0.029394 
     12 N           3.240404    0.041651    0.004054 N.ar      1 <1>        -0.245726 
     13 C           2.211035   -0.909229    0.059499 C.ar      1 <1>         0.177440 
     14 C           2.610316   -2.368705    0.148516 C.2       1 <1>         0.184625 
     15 O           3.801358   -2.632640    0.167714 O.2       1 <1>        -0.290503 
     16 C           1.639059   -3.516964    0.215017 C.3       1 <1>         0.000365 
     17 H          -0.639563   -1.980912    0.119340 H         1 <1>         0.453543 
     18 H          -3.341363   -1.162871    0.063696 H         1 <1>         0.068340 
     19 H          -4.776609    0.911963   -0.064882 H         1 <1>         0.061965 
     20 H          -3.686174    3.226576   -0.202759 H         1 <1>         0.061781 
     21 H          -1.167748    3.441772   -0.210623 H         1 <1>         0.062574 
     22 H           1.462589    3.026154   -0.180062 H         1 <1>         0.064086 
     23 H           3.877654    2.082239   -0.118064 H         1 <1>         0.082981 
     24 H           2.181240   -4.473781    0.272990 H         1 <1>         0.030985 
     25 H           1.015743   -3.536430   -0.690640 H         1 <1>         0.030985 
     26 H           1.012355   -3.428977    1.114247 H         1 <1>         0.030985 
@<TRIPOS>BOND
     1    1    2 1    
     2    1    6 2    
     3    1    9 1    
     4    2    3 2    
     5    2   18 1    
     6    3    4 1    
     7    3   19 1    
     8    4    5 2    
     9    4   20 1    
    10    5    6 1    
    11    5   21 1    
    12    6    7 1    
    13    7    8 1    
    14    7   10 2    
    15    8    9 1    
    16    8   13 2    
    17    9   17 1    
    18   10   11 1    
    19   10   22 1    
    20   11   12 2    
    21   11   23 1    
    22   12   13 1    
    23   13   14 1    
    24   14   15 2    
    25   14   16 1    
    26   16   24 1    
    27   16   25 1    
    28   16   26 1    
@<TRIPOS>SUBSTRUCTURE
     1 ****        1 TEMP              0 ****  ****    0 ROOT 
@<TRIPOS>NORMAL
@<TRIPOS>FF_PBC
FORCE_FIELD_SETUP_FEATURE Force Field Setup information
v1.0  0 0.000000 0.000000 0.000000 0.000000 0.000000 0.000000 NONE 0 0 0 0 1 0 0 0 0 0 0 0 0
