@<TRIPOS>MOLECULE
MOL004949
   44    46     1     1     0
SMALL
GASTEIGER


@<TRIPOS>ATOM
      1 C          -3.945620    5.084230    0.033346 C.ar      1 <1>        -0.001302 
      2 C          -4.346335    3.661439    0.146595 C.ar      1 <1>         0.077519 
      3 C          -2.588269    5.441201   -0.065308 C.ar      1 <1>         0.088401 
      4 C          -1.559488    4.372648   -0.062521 C.ar      1 <1>         0.084553 
      5 C          -1.928436    3.033287    0.078263 C.ar      1 <1>         0.099001 
      6 C          -3.358119    2.665526    0.179765 C.ar      1 <1>        -0.000529 
      7 C          -0.083759    4.641152   -0.206943 C.2       1 <1>         0.223066 
      8 C           0.844516    3.494804   -0.158376 C.2       1 <1>         0.151806 
      9 C           0.360084    2.254220    0.025382 C.2       1 <1>         0.123630 
     10 O          -0.961933    2.029533    0.123259 O.3       1 <1>        -0.305131 
     11 O          -2.197227    6.778819   -0.161355 O.3       1 <1>        -0.358954 
     12 C           1.217523    1.007610    0.136820 C.ar      1 <1>         0.008563 
     13 C           0.586101   -0.283917   -0.234345 C.ar      1 <1>        -0.046109 
     14 C           1.263557   -1.507608   -0.117549 C.ar      1 <1>        -0.013298 
     15 C           2.673474   -1.508583    0.354225 C.ar      1 <1>         0.076073 
     16 C           3.287235   -0.288731    0.684909 C.ar      1 <1>        -0.031025 
     17 C           2.544925    0.990628    0.591398 C.ar      1 <1>        -0.049581 
     18 O           3.372436   -2.711947    0.474412 O.3       1 <1>        -0.359551 
     19 C           0.487582   -2.787498   -0.477320 C.3       1 <1>        -0.006792 
     20 O           0.356519    5.768424   -0.365302 O.2       1 <1>        -0.284270 
     21 O          -5.703653    3.341882    0.220588 O.3       1 <1>        -0.359667 
     22 C           1.303047   -4.030570   -0.748472 C.2       1 <1>        -0.080898 
     23 C           0.986043   -5.272284   -0.342512 C.2       1 <1>        -0.079307 
     24 C           1.903127   -6.444325   -0.617151 C.3       1 <1>        -0.044040 
     25 C          -0.286184   -5.609439    0.406000 C.3       1 <1>        -0.044040 
     26 O           2.161688    3.694599   -0.306990 O.3       1 <1>        -0.354461 
     27 H          -4.719693    5.843298    0.029304 H         1 <1>         0.066923 
     28 H          -3.623011    1.618195    0.275451 H         1 <1>         0.066947 
     29 H          -2.879010    7.407211    0.050718 H         1 <1>         0.217342 
     30 H          -0.435968   -0.282720   -0.597621 H         1 <1>         0.062785 
     31 H           4.317678   -0.270482    1.022901 H         1 <1>         0.064348 
     32 H           3.049312    1.897251    0.900102 H         1 <1>         0.062504 
     33 H           4.316623   -2.614269    0.527780 H         1 <1>         0.217325 
     34 H          -0.202221   -2.926438    0.366642 H         1 <1>         0.035640 
     35 H          -0.103228   -2.603877   -1.387814 H         1 <1>         0.035640 
     36 H          -5.895189    2.416822    0.108448 H         1 <1>         0.217316 
     37 H           2.213521   -3.882668   -1.329700 H         1 <1>         0.057472 
     38 H           2.886203   -6.139128   -1.006110 H         1 <1>         0.027427 
     39 H           2.068002   -7.005285    0.315269 H         1 <1>         0.027427 
     40 H           1.431328   -7.112714   -1.353078 H         1 <1>         0.027427 
     41 H          -0.555277   -6.667274    0.261259 H         1 <1>         0.027427 
     42 H          -0.132544   -5.433526    1.480877 H         1 <1>         0.027427 
     43 H          -1.142358   -5.013918    0.056576 H         1 <1>         0.027427 
     44 H           2.386470    4.612417   -0.435689 H         1 <1>         0.217537 
@<TRIPOS>BOND
     1    1    2 1    
     2    1    3 2    
     3    1   27 1    
     4    2    6 2    
     5    2   21 1    
     6    3    4 1    
     7    3   11 1    
     8    4    5 2    
     9    4    7 1    
    10    5    6 1    
    11    5   10 1    
    12    6   28 1    
    13    7    8 1    
    14    7   20 2    
    15    8    9 2    
    16    8   26 1    
    17    9   10 1    
    18    9   12 1    
    19   11   29 1    
    20   12   13 1    
    21   12   17 2    
    22   13   14 2    
    23   13   30 1    
    24   14   15 1    
    25   14   19 1    
    26   15   16 2    
    27   15   18 1    
    28   16   17 1    
    29   16   31 1    
    30   17   32 1    
    31   18   33 1    
    32   19   22 1    
    33   19   34 1    
    34   19   35 1    
    35   21   36 1    
    36   22   23 2    
    37   22   37 1    
    38   23   24 1    
    39   23   25 1    
    40   24   38 1    
    41   24   39 1    
    42   24   40 1    
    43   25   41 1    
    44   25   42 1    
    45   25   43 1    
    46   26   44 1    
@<TRIPOS>SUBSTRUCTURE
     1 ****        1 TEMP              0 ****  ****    0 ROOT 
@<TRIPOS>NORMAL
@<TRIPOS>FF_PBC
FORCE_FIELD_SETUP_FEATURE Force Field Setup information
v1.0  0 0.000000 0.000000 0.000000 0.000000 0.000000 0.000000 NONE 0 0 0 0 1 0 0 0 0 0 0 0 0
