@<TRIPOS>MOLECULE
MOL002194
   39    40     1     1     0
SMALL
GASTEIGER


@<TRIPOS>ATOM
      1 C           1.412741    0.697409    0.486972 C.3       1 <1>        -0.028355 
      2 C          -0.024367    0.108094    0.397832 C.3       1 <1>        -0.027781 
      3 C           0.036853   -1.451888    0.415890 C.3       1 <1>        -0.016491 
      4 C           0.772523   -1.924766    1.706662 C.3       1 <1>        -0.042567 
      5 C           2.208671   -1.347131    1.785868 C.3       1 <1>        -0.031439 
      6 C           2.120425    0.157343    1.707811 C.2       1 <1>        -0.076299 
      7 C          -0.820981    0.706003   -0.819059 C.3       1 <1>        -0.034759 
      8 C          -1.134581   -0.394019   -1.873733 C.3       1 <1>        -0.046004 
      9 C           0.123563   -1.254429   -2.145044 C.3       1 <1>        -0.031456 
     10 C           0.581264   -1.979353   -0.901128 C.2       1 <1>        -0.073225 
     11 C          -2.097457    1.501028   -0.374228 C.3       1 <1>        -0.043598 
     12 C          -1.714075    2.806248    0.388826 C.3       1 <1>        -0.062405 
     13 C          -3.016476    1.892762   -1.569062 C.3       1 <1>        -0.062405 
     14 C           2.629646    0.955067    2.657060 C.2       1 <1>        -0.099438 
     15 C           1.410028   -3.026466   -1.028692 C.2       1 <1>        -0.099175 
     16 H           1.358169    1.797542    0.518360 H         1 <1>         0.031284 
     17 H           1.994129    0.414530   -0.403535 H         1 <1>         0.031284 
     18 H          -0.528079    0.387808    1.336790 H         1 <1>         0.031227 
     19 H          -0.993419   -1.838317    0.494569 H         1 <1>         0.034846 
     20 H           0.786159   -3.023312    1.779496 H         1 <1>         0.027408 
     21 H           0.218610   -1.563473    2.589933 H         1 <1>         0.027408 
     22 H           2.685975   -1.686448    2.719649 H         1 <1>         0.031008 
     23 H           2.826015   -1.700619    0.947028 H         1 <1>         0.031008 
     24 H          -0.180025    1.431474   -1.348290 H         1 <1>         0.030630 
     25 H          -1.433926    0.060418   -2.833214 H         1 <1>         0.027113 
     26 H          -1.961801   -1.036315   -1.532052 H         1 <1>         0.027113 
     27 H           0.942337   -0.610699   -2.503488 H         1 <1>         0.031008 
     28 H          -0.111096   -1.983770   -2.938396 H         1 <1>         0.031008 
     29 H          -2.693124    0.858868    0.297778 H         1 <1>         0.029823 
     30 H          -2.620253    3.327517    0.734756 H         1 <1>         0.023242 
     31 H          -1.090661    2.617481    1.273441 H         1 <1>         0.023242 
     32 H          -1.161095    3.485716   -0.277855 H         1 <1>         0.023242 
     33 H          -3.843886    2.534457   -1.228258 H         1 <1>         0.023242 
     34 H          -3.471839    1.007219   -2.037251 H         1 <1>         0.023242 
     35 H          -2.442213    2.444438   -2.329247 H         1 <1>         0.023242 
     36 H           2.557677    2.040094    2.590762 H         1 <1>         0.053440 
     37 H           3.135330    0.547892    3.531860 H         1 <1>         0.053440 
     38 H           1.783800   -3.625601   -0.202859 H         1 <1>         0.053449 
     39 H           1.755740   -3.333009   -2.015753 H         1 <1>         0.053449 
@<TRIPOS>BOND
     1    1    2 1    
     2    1    6 1    
     3    1   16 1    
     4    1   17 1    
     5    2    3 1    
     6    2    7 1    
     7    2   18 1    
     8    3    4 1    
     9    3   10 1    
    10    3   19 1    
    11    4    5 1    
    12    4   20 1    
    13    4   21 1    
    14    5    6 1    
    15    5   22 1    
    16    5   23 1    
    17    6   14 2    
    18    7    8 1    
    19    7   11 1    
    20    7   24 1    
    21    8    9 1    
    22    8   25 1    
    23    8   26 1    
    24    9   10 1    
    25    9   27 1    
    26    9   28 1    
    27   10   15 2    
    28   11   12 1    
    29   11   13 1    
    30   11   29 1    
    31   12   30 1    
    32   12   31 1    
    33   12   32 1    
    34   13   33 1    
    35   13   34 1    
    36   13   35 1    
    37   14   36 1    
    38   14   37 1    
    39   15   38 1    
    40   15   39 1    
@<TRIPOS>SUBSTRUCTURE
     1 ****        1 TEMP              0 ****  ****    0 ROOT 
@<TRIPOS>NORMAL
@<TRIPOS>FF_PBC
FORCE_FIELD_SETUP_FEATURE Force Field Setup information
v1.0  0 0.000000 0.000000 0.000000 0.000000 0.000000 0.000000 NONE 0 0 0 0 1 0 0 0 0 0 0 0 0
