@<TRIPOS>MOLECULE
MOL008039
   42    44     1     1     0
SMALL
GASTEIGER


@<TRIPOS>ATOM
      1 O          -0.138749    0.314443   -0.146991 O.3       1 <1>        -0.307624 
      2 O           2.245808   -2.515816    1.746830 O.3       1 <1>        -0.347157 
      3 O          -4.367030    2.754525   -0.383102 O.3       1 <1>        -0.345178 
      4 O          -4.375879   -2.233439   -0.381403 O.3       1 <1>        -0.356594 
      5 O           4.912599    1.585534   -1.170963 O.3       1 <1>        -0.345328 
      6 O          -5.833955    0.207762   -0.468559 O.3       1 <1>        -0.355373 
      7 O          -1.908146   -3.332831   -0.254294 O.2       1 <1>        -0.287016 
      8 O           6.341331   -0.149047    0.500700 O.3       1 <1>        -0.357211 
      9 C          -2.266845   -0.987041   -0.265223 C.ar      1 <1>         0.084484 
     10 C           0.598897   -0.805945   -0.045794 C.2       1 <1>         0.096414 
     11 C          -1.534422    0.293857   -0.229926 C.ar      1 <1>         0.098982 
     12 C           2.094679   -0.633062    0.112796 C.ar      1 <1>         0.038124 
     13 C          -1.406121   -2.220493   -0.206598 C.2       1 <1>         0.193595 
     14 C           0.042720   -2.026564   -0.084080 C.2       1 <1>         0.017004 
     15 C          -3.674597   -1.021721   -0.346063 C.ar      1 <1>         0.118239 
     16 C          -2.247559    1.493207   -0.276242 C.ar      1 <1>         0.002256 
     17 C           2.880316   -1.519436    1.006954 C.ar      1 <1>         0.088016 
     18 C           2.750039    0.403824   -0.599049 C.ar      1 <1>        -0.017042 
     19 C          -3.727589    1.506194   -0.353018 C.ar      1 <1>         0.110465 
     20 C          -4.438960    0.251272   -0.391235 C.ar      1 <1>         0.133548 
     21 C           4.220158    0.583754   -0.475732 C.ar      1 <1>         0.106203 
     22 C           4.260184   -1.353103    1.123135 C.ar      1 <1>         0.001281 
     23 C           4.957834   -0.287364    0.369553 C.ar      1 <1>         0.104942 
     24 C           1.567613   -2.033188    2.918636 C.3       1 <1>         0.043053 
     25 C          -5.795782    2.896520   -0.356684 C.3       1 <1>         0.043138 
     26 C           4.255325    2.405548   -2.150102 C.3       1 <1>         0.043136 
     27 H           0.646942   -2.931043   -0.031368 H         1 <1>         0.068220 
     28 H          -1.710506    2.434400   -0.253141 H         1 <1>         0.067039 
     29 H           2.157836    1.052161   -1.233566 H         1 <1>         0.065164 
     30 H           4.828933   -2.006099    1.775137 H         1 <1>         0.067013 
     31 H          -3.822898   -3.009370   -0.347982 H         1 <1>         0.217446 
     32 H          -6.157031   -0.687632   -0.489799 H         1 <1>         0.217502 
     33 H           1.096214   -2.891905    3.418918 H         1 <1>         0.052870 
     34 H           0.782589   -1.304295    2.663975 H         1 <1>         0.052870 
     35 H           2.282273   -1.566809    3.614857 H         1 <1>         0.052870 
     36 H           6.671534    0.570583   -0.029063 H         1 <1>         0.217423 
     37 H          -6.221563    2.437824    0.548945 H         1 <1>         0.052871 
     38 H          -6.252564    2.465438   -1.260179 H         1 <1>         0.052871 
     39 H          -6.023098    3.972353   -0.338376 H         1 <1>         0.052871 
     40 H           3.472917    3.026627   -1.687909 H         1 <1>         0.052871 
     41 H           3.825708    1.787702   -2.953744 H         1 <1>         0.052871 
     42 H           5.011148    3.072975   -2.590145 H         1 <1>         0.052871 
@<TRIPOS>BOND
     1   10    1 1    
     2    1   11 1    
     3   17    2 1    
     4    2   24 1    
     5   19    3 1    
     6    3   25 1    
     7   15    4 1    
     8    4   31 1    
     9   21    5 1    
    10    5   26 1    
    11   20    6 1    
    12    6   32 1    
    13   13    7 2    
    14   23    8 1    
    15    8   36 1    
    16   11    9 1    
    17   13    9 1    
    18    9   15 2    
    19   12   10 1    
    20   10   14 2    
    21   11   16 2    
    22   12   17 1    
    23   18   12 2    
    24   14   13 1    
    25   14   27 1    
    26   15   20 1    
    27   16   19 1    
    28   16   28 1    
    29   17   22 2    
    30   21   18 1    
    31   18   29 1    
    32   19   20 2    
    33   21   23 2    
    34   22   23 1    
    35   22   30 1    
    36   24   33 1    
    37   24   34 1    
    38   24   35 1    
    39   25   37 1    
    40   25   38 1    
    41   25   39 1    
    42   26   40 1    
    43   26   41 1    
    44   26   42 1    
@<TRIPOS>SUBSTRUCTURE
     1 ****        1 TEMP              0 ****  ****    0 ROOT 
@<TRIPOS>NORMAL
@<TRIPOS>FF_PBC
FORCE_FIELD_SETUP_FEATURE Force Field Setup information
v1.0  0 0.000000 0.000000 0.000000 0.000000 0.000000 0.000000 NONE 0 0 0 0 1 0 0 0 0 0 0 0 0
