@<TRIPOS>MOLECULE
MOL000474
   40    42     1     1     0
SMALL
GASTEIGER


@<TRIPOS>ATOM
      1 C          -0.795696   -0.722170   -0.180639 C.3       1 <1>        -0.029250 
      2 C           0.118682   -1.916158    0.226860 C.3       1 <1>        -0.046502 
      3 C           1.543976   -1.842738   -0.387136 C.3       1 <1>        -0.021261 
      4 C           2.308810   -0.565249    0.042661 C.3       1 <1>         0.093224 
      5 O           3.391856   -0.283772   -0.810307 O.3       1 <1>        -0.365030 
      6 C           2.349318    0.635422   -1.005338 C.3       1 <1>         0.088402 
      7 C           2.461371    2.059465   -0.411131 C.3       1 <1>        -0.020183 
      8 C           1.234899    2.384359    0.485802 C.3       1 <1>        -0.029288 
      9 C          -0.023528    1.779672   -0.107411 C.2       1 <1>        -0.073144 
     10 C          -0.648028    0.598815    0.621296 C.3       1 <1>        -0.016342 
     11 C          -2.187721    0.652852    0.809888 C.3       1 <1>        -0.040797 
     12 C          -2.286947   -0.797293    0.267728 C.3       1 <1>        -0.030966 
     13 C          -0.529123    2.282739   -1.242319 C.2       1 <1>        -0.099174 
     14 C          -2.597919   -1.796710    1.418828 C.3       1 <1>        -0.059523 
     15 C          -3.283199   -0.969562   -0.911986 C.3       1 <1>        -0.059523 
     16 C           2.837063   -0.474150    1.496831 C.3       1 <1>        -0.033358 
     17 H          -0.722958   -0.537674   -1.264305 H         1 <1>         0.031168 
     18 H          -0.350307   -2.840171   -0.149164 H         1 <1>         0.026918 
     19 H           0.208898   -2.001491    1.319529 H         1 <1>         0.026918 
     20 H           2.132285   -2.715906   -0.061418 H         1 <1>         0.029375 
     21 H           1.466355   -1.893306   -1.485111 H         1 <1>         0.029375 
     22 H           1.694217    0.471055   -1.875261 H         1 <1>         0.062487 
     23 H           2.476092    2.744188   -1.274267 H         1 <1>         0.029409 
     24 H           3.408675    2.205357    0.130211 H         1 <1>         0.029409 
     25 H           1.119095    3.477706    0.563846 H         1 <1>         0.031080 
     26 H           1.422600    2.017905    1.505644 H         1 <1>         0.031080 
     27 H          -0.202030    0.399239    1.607560 H         1 <1>         0.034853 
     28 H          -2.509908    0.785603    1.855798 H         1 <1>         0.027630 
     29 H          -2.701821    1.386613    0.172513 H         1 <1>         0.027630 
     30 H          -1.413994    1.876718   -1.727852 H         1 <1>         0.053449 
     31 H          -0.056400    3.132556   -1.733271 H         1 <1>         0.053449 
     32 H          -2.504240   -2.834055    1.065278 H         1 <1>         0.023508 
     33 H          -3.632406   -1.644851    1.762496 H         1 <1>         0.023508 
     34 H          -1.933005   -1.651528    2.283017 H         1 <1>         0.023508 
     35 H          -3.107569   -0.227824   -1.706006 H         1 <1>         0.023508 
     36 H          -4.316731   -0.851876   -0.553030 H         1 <1>         0.023508 
     37 H          -3.168885   -1.975732   -1.342636 H         1 <1>         0.023508 
     38 H           2.001413   -0.449445    2.208233 H         1 <1>         0.025813 
     39 H           3.468393    0.408480    1.663929 H         1 <1>         0.025813 
     40 H           3.443531   -1.367629    1.705996 H         1 <1>         0.025813 
@<TRIPOS>BOND
     1    1    2 1    
     2    1   10 1    
     3    1   12 1    
     4    1   17 1    
     5    2    3 1    
     6    2   18 1    
     7    2   19 1    
     8    3    4 1    
     9    3   20 1    
    10    3   21 1    
    11    4    5 1    
    12    4    6 1    
    13    4   16 1    
    14    5    6 1    
    15    6    7 1    
    16    6   22 1    
    17    7    8 1    
    18    7   23 1    
    19    7   24 1    
    20    8    9 1    
    21    8   25 1    
    22    8   26 1    
    23    9   10 1    
    24    9   13 2    
    25   10   11 1    
    26   10   27 1    
    27   11   12 1    
    28   11   28 1    
    29   11   29 1    
    30   12   14 1    
    31   12   15 1    
    32   13   30 1    
    33   13   31 1    
    34   14   32 1    
    35   14   33 1    
    36   14   34 1    
    37   15   35 1    
    38   15   36 1    
    39   15   37 1    
    40   16   38 1    
    41   16   39 1    
    42   16   40 1    
@<TRIPOS>SUBSTRUCTURE
     1 ****        1 TEMP              0 ****  ****    0 ROOT 
@<TRIPOS>NORMAL
@<TRIPOS>FF_PBC
FORCE_FIELD_SETUP_FEATURE Force Field Setup information
v1.0  0 0.000000 0.000000 0.000000 0.000000 0.000000 0.000000 NONE 0 0 0 0 1 0 0 0 0 0 0 0 0
