@<TRIPOS>MOLECULE
MOL004951
   52    54     1     1     0
SMALL
GASTEIGER


@<TRIPOS>ATOM
      1 C          -1.191530    1.333935   -2.392085 C.3       1 <1>         0.193642 
      2 O          -0.445504    1.500001   -1.171593 O.3       1 <1>        -0.312551 
      3 O          -2.298736    2.255605   -2.306714 O.3       1 <1>        -0.340168 
      4 C          -1.760370   -0.097071   -2.598232 C.3       1 <1>         0.134509 
      5 C           0.835376    0.998384   -0.914277 C.ar      1 <1>         0.079499 
      6 C          -3.133432    2.003892   -1.157588 C.3       1 <1>         0.113017 
      7 C          -2.621884   -0.463622   -1.364633 C.3       1 <1>         0.114074 
      8 O          -0.739851   -1.094750   -2.817370 O.3       1 <1>        -0.384091 
      9 C           1.412982    1.175990    0.438968 C.ar      1 <1>        -0.031013 
     10 C           1.605406    0.361598   -1.894939 C.ar      1 <1>        -0.031013 
     11 C          -3.754988    0.584089   -1.228417 C.3       1 <1>         0.111896 
     12 C          -4.225448    3.097674   -1.072259 C.3       1 <1>         0.073015 
     13 O          -3.158567   -1.784650   -1.563750 O.3       1 <1>        -0.386401 
     14 C           2.717024    0.752025    0.728758 C.ar      1 <1>        -0.052152 
     15 C           2.957477   -0.147668   -1.573258 C.ar      1 <1>        -0.052152 
     16 O          -4.628679    0.490474   -2.370924 O.3       1 <1>        -0.386488 
     17 O          -4.806599    3.059969    0.246600 O.3       1 <1>        -0.392366 
     18 C           3.504751    0.032551   -0.299974 C.ar      1 <1>        -0.024759 
     19 C           4.890899   -0.521193   -0.045468 C.2       1 <1>        -0.050956 
     20 C           5.260052   -1.322995    0.964190 C.2       1 <1>        -0.013708 
     21 C           4.449541   -1.897825    2.058034 C.2       1 <1>         0.188543 
     22 C           2.965208   -1.649470    2.172566 C.ar      1 <1>         0.051478 
     23 O           5.002051   -2.589420    2.898988 O.2       1 <1>        -0.287193 
     24 C           2.465162   -0.967218    3.385960 C.ar      1 <1>         0.085798 
     25 C           2.077407   -2.038639    1.160799 C.ar      1 <1>        -0.046025 
     26 C           1.105242   -0.656930    3.497912 C.ar      1 <1>        -0.001470 
     27 O           3.351839   -0.630924    4.406797 O.3       1 <1>        -0.359040 
     28 C           0.635008   -1.704250    1.282996 C.ar      1 <1>        -0.031105 
     29 C           0.162512   -1.015140    2.410398 C.ar      1 <1>         0.075057 
     30 O          -1.190174   -0.672106    2.491987 O.3       1 <1>        -0.359749 
     31 H          -0.597040    1.656379   -3.260362 H         1 <1>         0.094159 
     32 H          -2.400406   -0.062477   -3.500531 H         1 <1>         0.067108 
     33 H          -2.540535    2.114567   -0.233406 H         1 <1>         0.064668 
     34 H          -1.979417   -0.453975   -0.470843 H         1 <1>         0.064758 
     35 H          -1.114216   -1.962986   -2.949806 H         1 <1>         0.210111 
     36 H           0.813866    1.656254    1.202181 H         1 <1>         0.064347 
     37 H           1.241287    0.232470   -2.903324 H         1 <1>         0.064347 
     38 H          -4.334684    0.397050   -0.310242 H         1 <1>         0.064673 
     39 H          -3.741587    4.076255   -1.242550 H         1 <1>         0.058370 
     40 H          -4.993792    2.942503   -1.847423 H         1 <1>         0.058370 
     41 H          -3.668061   -2.106726   -0.826785 H         1 <1>         0.210005 
     42 H           3.145861    0.951997    1.705342 H         1 <1>         0.062423 
     43 H           3.519921   -0.664395   -2.342857 H         1 <1>         0.062423 
     44 H          -4.976427   -0.389358   -2.487711 H         1 <1>         0.210004 
     45 H          -5.445674    3.750030    0.399521 H         1 <1>         0.209508 
     46 H           5.636062   -0.235507   -0.787959 H         1 <1>         0.062459 
     47 H           6.313304   -1.612052    0.994191 H         1 <1>         0.065602 
     48 H           2.437985   -2.571370    0.284462 H         1 <1>         0.062620 
     49 H           0.747345   -0.152223    4.389589 H         1 <1>         0.066921 
     50 H           3.177511   -1.148198    5.186518 H         1 <1>         0.217341 
     51 H          -0.054708   -1.985463    0.496082 H         1 <1>         0.064341 
     52 H          -1.380034   -0.042425    3.181411 H         1 <1>         0.217315 
@<TRIPOS>BOND
     1    1    2 1    
     2    1    3 1    
     3    1    4 1    
     4    1   31 1    
     5    2    5 1    
     6    3    6 1    
     7    4    7 1    
     8    4    8 1    
     9    4   32 1    
    10    5    9 1    
    11    5   10 2    
    12    6   11 1    
    13    6   12 1    
    14    6   33 1    
    15    7   11 1    
    16    7   13 1    
    17    7   34 1    
    18    8   35 1    
    19    9   14 2    
    20    9   36 1    
    21   10   15 1    
    22   10   37 1    
    23   11   16 1    
    24   11   38 1    
    25   12   17 1    
    26   12   39 1    
    27   12   40 1    
    28   13   41 1    
    29   14   18 1    
    30   14   42 1    
    31   15   18 2    
    32   15   43 1    
    33   16   44 1    
    34   17   45 1    
    35   18   19 1    
    36   19   20 2    
    37   19   46 1    
    38   20   21 1    
    39   20   47 1    
    40   21   22 1    
    41   21   23 2    
    42   22   24 1    
    43   22   25 2    
    44   24   26 2    
    45   24   27 1    
    46   25   28 1    
    47   25   48 1    
    48   26   29 1    
    49   26   49 1    
    50   27   50 1    
    51   28   29 2    
    52   28   51 1    
    53   29   30 1    
    54   30   52 1    
@<TRIPOS>SUBSTRUCTURE
     1 ****        1 TEMP              0 ****  ****    0 ROOT 
@<TRIPOS>NORMAL
@<TRIPOS>FF_PBC
FORCE_FIELD_SETUP_FEATURE Force Field Setup information
v1.0  0 0.000000 0.000000 0.000000 0.000000 0.000000 0.000000 NONE 0 0 0 0 1 0 0 0 0 0 0 0 0
