@<TRIPOS>MOLECULE
MOL000513
   18    18     1     1     0
SMALL
GASTEIGER


@<TRIPOS>ATOM
      1 C           1.662121    2.032770   -0.551610 C.2       1 <1>         0.291400 
      2 C           0.723870    0.886784   -0.240342 C.ar      1 <1>         0.051299 
      3 C           1.228343   -0.508107   -0.263874 C.ar      1 <1>        -0.016375 
      4 C           0.374556   -1.583001    0.021656 C.ar      1 <1>         0.105519 
      5 O           0.877051   -2.884580   -0.008069 O.3       1 <1>        -0.357199 
      6 C          -1.050988   -1.332437    0.352132 C.ar      1 <1>         0.132457 
      7 O          -1.889867   -2.414608    0.634534 O.3       1 <1>        -0.355395 
      8 C          -1.548821    0.000076    0.378512 C.ar      1 <1>         0.105519 
      9 O          -2.893516    0.218942    0.691503 O.3       1 <1>        -0.357199 
     10 C          -0.636593    1.131919    0.074623 C.ar      1 <1>        -0.016375 
     11 O           1.244604    3.180482   -0.531650 O.2       1 <1>        -0.259427 
     12 O           2.939328    1.777649   -0.845518 O.3       1 <1>        -0.327488 
     13 H           2.267008   -0.708467   -0.503386 H         1 <1>         0.065181 
     14 H           0.202257   -3.522709    0.202462 H         1 <1>         0.217423 
     15 H          -2.777380   -2.129765    0.831045 H         1 <1>         0.217501 
     16 H          -3.144538    1.135956    0.687341 H         1 <1>         0.217423 
     17 H          -1.012561    2.149182    0.093758 H         1 <1>         0.065181 
     18 H           3.434930    2.570015   -1.023316 H         1 <1>         0.220555 
@<TRIPOS>BOND
     1    1    2 1    
     2    1   11 2    
     3    1   12 1    
     4    2    3 1    
     5    2   10 2    
     6    3    4 2    
     7    3   13 1    
     8    4    5 1    
     9    4    6 1    
    10    5   14 1    
    11    6    7 1    
    12    6    8 2    
    13    7   15 1    
    14    8    9 1    
    15    8   10 1    
    16    9   16 1    
    17   10   17 1    
    18   12   18 1    
@<TRIPOS>SUBSTRUCTURE
     1 ****        1 TEMP              0 ****  ****    0 ROOT 
@<TRIPOS>NORMAL
@<TRIPOS>FF_PBC
FORCE_FIELD_SETUP_FEATURE Force Field Setup information
v1.0  0 0.000000 0.000000 0.000000 0.000000 0.000000 0.000000 NONE 0 0 0 0 1 0 0 0 0 0 0 0 0
