@<TRIPOS>MOLECULE
MOL000663
   74    73     1     1     0
SMALL
GASTEIGER


@<TRIPOS>ATOM
      1 C          -5.763898   -0.002736   -0.000106 C.3       1 <1>        -0.053057 
      2 C          -4.416663    0.770591    0.000120 C.3       1 <1>        -0.053057 
      3 C          -6.973309    0.972092    0.000124 C.3       1 <1>        -0.053057 
      4 C          -3.204065   -0.200141   -0.000113 C.3       1 <1>        -0.053057 
      5 C          -8.323352    0.203688   -0.000105 C.3       1 <1>        -0.053057 
      6 C          -1.858985    0.576993    0.000116 C.3       1 <1>        -0.053057 
      7 C          -9.529097    1.183109    0.000103 C.3       1 <1>        -0.053045 
      8 C          -0.644914   -0.391811   -0.000115 C.3       1 <1>        -0.053057 
      9 C         -10.882420    0.420559   -0.000122 C.3       1 <1>        -0.052596 
     10 C           0.699902    0.385632    0.000116 C.3       1 <1>        -0.053057 
     11 C         -12.082986    1.406261    0.000067 C.3       1 <1>        -0.044061 
     12 C           1.913051   -0.584339   -0.000114 C.3       1 <1>        -0.053057 
     13 C         -13.440350    0.652191   -0.000145 C.3       1 <1>         0.033006 
     14 C           3.258921    0.191061    0.000118 C.3       1 <1>        -0.053057 
     15 C         -14.619477    1.590807    0.000032 C.2       1 <1>         0.259588 
     16 C           4.470608   -0.780783   -0.000114 C.3       1 <1>        -0.053057 
     17 O         -15.816454    1.000698   -0.000105 O.3       1 <1>        -0.331267 
     18 O         -14.490102    2.805249    0.000283 O.2       1 <1>        -0.265177 
     19 C           5.817203   -0.006688    0.000117 C.3       1 <1>        -0.053057 
     20 C           7.028312   -0.979236   -0.000114 C.3       1 <1>        -0.053057 
     21 C           8.375434   -0.205874    0.000120 C.3       1 <1>        -0.053057 
     22 C           9.585691   -1.179511   -0.000115 C.3       1 <1>        -0.053057 
     23 C          10.934258   -0.408642    0.000121 C.3       1 <1>        -0.053065 
     24 C          12.142129   -1.385252   -0.000117 C.3       1 <1>        -0.053306 
     25 C          13.492112   -0.617560    0.000121 C.3       1 <1>        -0.055911 
     26 C          14.695695   -1.595738   -0.000120 C.3       1 <1>        -0.065276 
     27 H          -5.814663   -0.646545   -0.893639 H         1 <1>         0.026528 
     28 H          -5.814698   -0.647011    0.893090 H         1 <1>         0.026528 
     29 H          -4.366791    1.414553    0.893622 H         1 <1>         0.026528 
     30 H          -4.366760    1.415022   -0.893041 H         1 <1>         0.026528 
     31 H          -6.921237    1.615958    0.893558 H         1 <1>         0.026528 
     32 H          -6.921199    1.616424   -0.892968 H         1 <1>         0.026528 
     33 H          -3.252881   -0.844137   -0.893645 H         1 <1>         0.026528 
     34 H          -3.252914   -0.844609    0.893075 H         1 <1>         0.026528 
     35 H          -8.376318   -0.439908   -0.893627 H         1 <1>         0.026528 
     36 H          -8.376369   -0.440354    0.893093 H         1 <1>         0.026528 
     37 H          -1.810459    1.221046    0.893611 H         1 <1>         0.026528 
     38 H          -1.810425    1.221515   -0.893040 H         1 <1>         0.026528 
     39 H          -9.474395    1.826809    0.893484 H         1 <1>         0.026529 
     40 H          -9.474345    1.827248   -0.892958 H         1 <1>         0.026529 
     41 H          -0.693133   -1.035840   -0.893626 H         1 <1>         0.026528 
     42 H          -0.693169   -1.036310    0.893053 H         1 <1>         0.026528 
     43 H         -10.938299   -0.222762   -0.893710 H         1 <1>         0.026540 
     44 H         -10.938359   -0.223182    0.893158 H         1 <1>         0.026540 
     45 H           0.748590    1.029685    0.893598 H         1 <1>         0.026528 
     46 H           0.748626    1.030155   -0.893023 H         1 <1>         0.026528 
     47 H         -12.028792    2.049632    0.894007 H         1 <1>         0.027004 
     48 H         -12.028738    2.050039   -0.893577 H         1 <1>         0.027004 
     49 H           1.864155   -1.228337   -0.893602 H         1 <1>         0.026528 
     50 H           1.864119   -1.228807    0.893035 H         1 <1>         0.026528 
     51 H         -13.511516    0.012951   -0.894015 H         1 <1>         0.036600 
     52 H         -13.511568    0.012545    0.893430 H         1 <1>         0.036600 
     53 H           3.308468    0.835012    0.893613 H         1 <1>         0.026528 
     54 H           3.308503    0.835483   -0.893034 H         1 <1>         0.026528 
     55 H           4.420873   -1.424771   -0.893589 H         1 <1>         0.026528 
     56 H           4.420837   -1.425242    0.893019 H         1 <1>         0.026528 
     57 H         -16.523131    1.637295    0.000017 H         1 <1>         0.220208 
     58 H           5.867162    0.637195    0.893640 H         1 <1>         0.026528 
     59 H           5.867198    0.637667   -0.893061 H         1 <1>         0.026528 
     60 H           6.978039   -1.623186   -0.893600 H         1 <1>         0.026528 
     61 H           6.978001   -1.623661    0.893025 H         1 <1>         0.026528 
     62 H           8.425857    0.437969    0.893652 H         1 <1>         0.026528 
     63 H           8.425894    0.438446   -0.893067 H         1 <1>         0.026528 
     64 H           9.534638   -1.823341   -0.893618 H         1 <1>         0.026528 
     65 H           9.534599   -1.823820    0.893038 H         1 <1>         0.026528 
     66 H          10.986207    0.235098    0.893640 H         1 <1>         0.026528 
     67 H          10.986245    0.235580   -0.893049 H         1 <1>         0.026528 
     68 H          12.090495   -2.029020   -0.893634 H         1 <1>         0.026520 
     69 H          12.090455   -2.029504    0.893050 H         1 <1>         0.026520 
     70 H          13.550975    0.025997    0.893790 H         1 <1>         0.026265 
     71 H          13.551014    0.026480   -0.893194 H         1 <1>         0.026265 
     72 H          15.642306   -1.032468    0.000058 H         1 <1>         0.022978 
     73 H          14.669845   -2.236565   -0.895284 H         1 <1>         0.022978 
     74 H          14.669810   -2.237048    0.894697 H         1 <1>         0.022978 
@<TRIPOS>BOND
     1    1    2 1    
     2    1    3 1    
     3    1   27 1    
     4    1   28 1    
     5    2    4 1    
     6    2   29 1    
     7    2   30 1    
     8    3    5 1    
     9    3   31 1    
    10    3   32 1    
    11    4    6 1    
    12    4   33 1    
    13    4   34 1    
    14    5    7 1    
    15    5   35 1    
    16    5   36 1    
    17    6    8 1    
    18    6   37 1    
    19    6   38 1    
    20    7    9 1    
    21    7   39 1    
    22    7   40 1    
    23    8   10 1    
    24    8   41 1    
    25    8   42 1    
    26    9   11 1    
    27    9   43 1    
    28    9   44 1    
    29   10   12 1    
    30   10   45 1    
    31   10   46 1    
    32   11   13 1    
    33   11   47 1    
    34   11   48 1    
    35   12   14 1    
    36   12   49 1    
    37   12   50 1    
    38   13   15 1    
    39   13   51 1    
    40   13   52 1    
    41   14   16 1    
    42   14   53 1    
    43   14   54 1    
    44   15   17 1    
    45   15   18 2    
    46   16   19 1    
    47   16   55 1    
    48   16   56 1    
    49   17   57 1    
    50   19   20 1    
    51   19   58 1    
    52   19   59 1    
    53   20   21 1    
    54   20   60 1    
    55   20   61 1    
    56   21   22 1    
    57   21   62 1    
    58   21   63 1    
    59   22   23 1    
    60   22   64 1    
    61   22   65 1    
    62   23   24 1    
    63   23   66 1    
    64   23   67 1    
    65   24   25 1    
    66   24   68 1    
    67   24   69 1    
    68   25   26 1    
    69   25   70 1    
    70   25   71 1    
    71   26   72 1    
    72   26   73 1    
    73   26   74 1    
@<TRIPOS>SUBSTRUCTURE
     1 ****        1 TEMP              0 ****  ****    0 ROOT 
@<TRIPOS>NORMAL
@<TRIPOS>FF_PBC
FORCE_FIELD_SETUP_FEATURE Force Field Setup information
v1.0  0 0.000000 0.000000 0.000000 0.000000 0.000000 0.000000 NONE 0 0 0 0 1 0 0 0 0 0 0 0 0
