@<TRIPOS>MOLECULE
MOL006832
   39    40     1     1     0
SMALL
GASTEIGER


@<TRIPOS>ATOM
      1 O           1.559917   -0.598540    0.273573 O.3       1 <1>        -0.340055 
      2 O           5.256010   -0.141460    0.303517 O.3       1 <1>        -0.386488 
      3 O           4.260152    2.592019    0.015782 O.3       1 <1>        -0.386401 
      4 O          -0.234950    0.738073   -0.316287 O.3       1 <1>        -0.278318 
      5 O           1.580819    2.875369   -1.084668 O.3       1 <1>        -0.384090 
      6 O           2.367284   -3.297824    0.656980 O.3       1 <1>        -0.392366 
      7 O          -0.624023   -1.330544   -1.087608 O.2       1 <1>        -0.259141 
      8 O          -4.877959    2.386924    1.187654 O.3       1 <1>        -0.357199 
      9 O          -5.719656   -2.178398   -0.460661 O.3       1 <1>        -0.357199 
     10 O          -6.689320    0.210633    0.665098 O.3       1 <1>        -0.355395 
     11 C           3.866895    0.210948    0.450970 C.3       1 <1>         0.111896 
     12 C           3.498689    1.447478   -0.412558 C.3       1 <1>         0.114075 
     13 C           2.938220   -0.981294    0.101904 C.3       1 <1>         0.113019 
     14 C           1.982539    1.752583   -0.272373 C.3       1 <1>         0.134620 
     15 C           1.154455    0.479996   -0.591753 C.3       1 <1>         0.196847 
     16 C           3.204554   -2.190704    1.034447 C.3       1 <1>         0.073015 
     17 C          -1.042448   -0.297917   -0.585635 C.2       1 <1>         0.296291 
     18 C          -2.517053   -0.182681   -0.265592 C.ar      1 <1>         0.051575 
     19 C          -3.388411   -1.244577   -0.523209 C.ar      1 <1>        -0.016368 
     20 C          -3.043969    1.070548    0.329177 C.ar      1 <1>        -0.016368 
     21 C          -4.404869    1.197725    0.631333 C.ar      1 <1>         0.105520 
     22 C          -4.834985   -1.125378   -0.207515 C.ar      1 <1>         0.105520 
     23 C          -5.332029    0.071261    0.358396 C.ar      1 <1>         0.132457 
     24 H           3.709886    0.480731    1.507829 H         1 <1>         0.064673 
     25 H           3.717480    1.232346   -1.472477 H         1 <1>         0.064758 
     26 H           3.116115   -1.314585   -0.934592 H         1 <1>         0.064668 
     27 H           1.779072    2.025180    0.775370 H         1 <1>         0.067109 
     28 H           1.286049    0.224498   -1.658239 H         1 <1>         0.094270 
     29 H           3.008973   -1.906978    2.082540 H         1 <1>         0.058370 
     30 H           4.254194   -2.515302    0.951913 H         1 <1>         0.058370 
     31 H           5.494860   -0.392780   -0.583296 H         1 <1>         0.210004 
     32 H           5.200383    2.445610   -0.035917 H         1 <1>         0.210005 
     33 H           1.724567    2.744629   -2.015711 H         1 <1>         0.210111 
     34 H           1.442295   -3.065428    0.681909 H         1 <1>         0.209508 
     35 H          -3.007088   -2.162804   -0.956838 H         1 <1>         0.065181 
     36 H          -2.377477    1.901214    0.534978 H         1 <1>         0.065181 
     37 H          -5.818454    2.351333    1.332972 H         1 <1>         0.217423 
     38 H          -5.306971   -2.943924   -0.845011 H         1 <1>         0.217423 
     39 H          -7.185347   -0.569081    0.433402 H         1 <1>         0.217501 
@<TRIPOS>BOND
     1    1   13 1    
     2   15    1 1    
     3   11    2 1    
     4    2   31 1    
     5   12    3 1    
     6    3   32 1    
     7    4   15 1    
     8   17    4 1    
     9   14    5 1    
    10    5   33 1    
    11   16    6 1    
    12    6   34 1    
    13   17    7 2    
    14   21    8 1    
    15    8   37 1    
    16   22    9 1    
    17    9   38 1    
    18   23   10 1    
    19   10   39 1    
    20   12   11 1    
    21   13   11 1    
    22   11   24 1    
    23   14   12 1    
    24   12   25 1    
    25   13   16 1    
    26   13   26 1    
    27   15   14 1    
    28   14   27 1    
    29   15   28 1    
    30   16   29 1    
    31   16   30 1    
    32   18   17 1    
    33   18   19 2    
    34   20   18 1    
    35   19   22 1    
    36   19   35 1    
    37   21   20 2    
    38   20   36 1    
    39   21   23 1    
    40   22   23 2    
@<TRIPOS>SUBSTRUCTURE
     1 ****        2 TEMP              0 ****  ****    0 ROOT 
@<TRIPOS>NORMAL
@<TRIPOS>FF_PBC
FORCE_FIELD_SETUP_FEATURE Force Field Setup information
v1.0  0 0.000000 0.000000 0.000000 0.000000 0.000000 0.000000 NONE 0 0 0 0 1 0 0 0 0 0 0 0 0
