@<TRIPOS>MOLECULE
MOL004839
   21    21     1     1     0
SMALL
GASTEIGER


@<TRIPOS>ATOM
      1 C          -0.624554    0.772511   -0.194753 C.3       1 <1>        -0.041294 
      2 C          -0.599950   -0.779292   -0.243784 C.3       1 <1>        -0.041294 
      3 C           0.877983    1.146662   -0.227030 C.3       1 <1>        -0.050208 
      4 C          -1.301290    1.305607    1.100012 C.3       1 <1>        -0.062172 
      5 C           0.577775   -1.148857    0.695429 C.3       1 <1>        -0.050208 
      6 C          -0.356801   -1.322301   -1.681102 C.3       1 <1>        -0.062172 
      7 C           1.583612    0.033650    0.594960 C.3       1 <1>        -0.052557 
      8 H          -1.166931    1.196086   -1.058109 H         1 <1>         0.030070 
      9 H          -1.555095   -1.203337    0.112888 H         1 <1>         0.030070 
     10 H           1.235385    1.129544   -1.269786 H         1 <1>         0.026794 
     11 H           1.071753    2.156324    0.170601 H         1 <1>         0.026794 
     12 H          -1.301466    2.406855    1.095106 H         1 <1>         0.023250 
     13 H          -2.346496    0.963016    1.149591 H         1 <1>         0.023250 
     14 H          -0.779443    0.968747    2.007248 H         1 <1>         0.023250 
     15 H           0.202910   -1.237996    1.728962 H         1 <1>         0.026794 
     16 H           1.036851   -2.114735    0.428537 H         1 <1>         0.026794 
     17 H          -0.390672   -2.423069   -1.673178 H         1 <1>         0.023250 
     18 H          -1.142783   -0.961300   -2.362367 H         1 <1>         0.023250 
     19 H           0.621313   -1.017308   -2.079520 H         1 <1>         0.023250 
     20 H           1.836251    0.403411    1.603386 H         1 <1>         0.026545 
     21 H           2.521648   -0.274317    0.102909 H         1 <1>         0.026545 
@<TRIPOS>BOND
     1    1    2 1    
     2    1    3 1    
     3    1    4 1    
     4    1    8 1    
     5    2    5 1    
     6    2    6 1    
     7    2    9 1    
     8    3    7 1    
     9    3   10 1    
    10    3   11 1    
    11    4   12 1    
    12    4   13 1    
    13    4   14 1    
    14    5    7 1    
    15    5   15 1    
    16    5   16 1    
    17    6   17 1    
    18    6   18 1    
    19    6   19 1    
    20    7   20 1    
    21    7   21 1    
@<TRIPOS>SUBSTRUCTURE
     1 ****        1 TEMP              0 ****  ****    0 ROOT 
@<TRIPOS>NORMAL
@<TRIPOS>FF_PBC
FORCE_FIELD_SETUP_FEATURE Force Field Setup information
v1.0  0 0.000000 0.000000 0.000000 0.000000 0.000000 0.000000 NONE 0 0 0 0 1 0 0 0 0 0 0 0 0
