@<TRIPOS>MOLECULE
MOL003475
   40    42     1     1     0
SMALL
GASTEIGER


@<TRIPOS>ATOM
      1 O           2.396013   -1.454241    1.760928 O.2       1 <1>        -0.297097 
      2 C          -0.473498   -0.788905   -0.209836 C.3       1 <1>        -0.016398 
      3 C          -0.643298    0.373786    0.812308 C.3       1 <1>        -0.029305 
      4 C           0.356734    1.494536    0.344556 C.3       1 <1>        -0.028062 
      5 C           1.226391    0.783616   -0.753811 C.3       1 <1>        -0.025829 
      6 C           0.174055   -0.110838   -1.445446 C.3       1 <1>        -0.042497 
      7 C          -1.902133   -1.319714   -0.534834 C.3       1 <1>        -0.037543 
      8 C          -2.176026    0.668470    0.855786 C.3       1 <1>        -0.048932 
      9 C           0.541232   -1.849273    0.317297 C.3       1 <1>         0.012272 
     10 C          -2.780610   -0.049862   -0.375185 C.3       1 <1>        -0.049652 
     11 C           2.381725   -0.112140   -0.202087 C.3       1 <1>         0.018034 
     12 C           1.827749   -1.170277    0.718403 C.2       1 <1>         0.136975 
     13 C           1.202183    2.028702    1.543936 C.3       1 <1>        -0.059270 
     14 C          -0.339396    2.749873   -0.281649 C.3       1 <1>        -0.059270 
     15 C          -2.393471   -2.450216    0.414231 C.3       1 <1>        -0.061891 
     16 C           3.250855   -0.784165   -1.303801 C.3       1 <1>        -0.055425 
     17 H          -0.357209    0.023549    1.819016 H         1 <1>         0.031157 
     18 H           1.667503    1.503171   -1.463487 H         1 <1>         0.031282 
     19 H          -0.527740    0.502585   -2.023330 H         1 <1>         0.027390 
     20 H           0.582447   -0.838650   -2.158962 H         1 <1>         0.027390 
     21 H          -1.957282   -1.706799   -1.567079 H         1 <1>         0.030366 
     22 H          -2.460196    1.727854    0.900524 H         1 <1>         0.026837 
     23 H          -2.614291    0.200382    1.753799 H         1 <1>         0.026837 
     24 H           0.739988   -2.618638   -0.443677 H         1 <1>         0.034722 
     25 H           0.154866   -2.350860    1.216558 H         1 <1>         0.034722 
     26 H          -3.849890   -0.281919   -0.241274 H         1 <1>         0.026811 
     27 H          -2.700467    0.599381   -1.259715 H         1 <1>         0.026811 
     28 H           3.080429    0.533097    0.355258 H         1 <1>         0.037743 
     29 H           0.554491    2.560450    2.257732 H         1 <1>         0.023516 
     30 H           1.697912    1.226007    2.108420 H         1 <1>         0.023516 
     31 H           1.972623    2.728875    1.186041 H         1 <1>         0.023516 
     32 H          -1.065827    2.503045   -1.065887 H         1 <1>         0.023516 
     33 H          -0.863483    3.343619    0.481888 H         1 <1>         0.023516 
     34 H           0.415742    3.415177   -0.727624 H         1 <1>         0.023516 
     35 H          -1.817355   -3.372572    0.243044 H         1 <1>         0.023259 
     36 H          -2.301900   -2.168478    1.473121 H         1 <1>         0.023259 
     37 H          -3.450293   -2.680887    0.208724 H         1 <1>         0.023259 
     38 H           2.719203   -1.579040   -1.844108 H         1 <1>         0.023650 
     39 H           3.596692   -0.033781   -2.031495 H         1 <1>         0.023650 
     40 H           4.137130   -1.246122   -0.839680 H         1 <1>         0.023650 
@<TRIPOS>BOND
     1   12    1 2    
     2    2    3 1    
     3    2    6 1    
     4    2    7 1    
     5    9    2 1    
     6    3    4 1    
     7    3    8 1    
     8    3   17 1    
     9    5    4 1    
    10    4   13 1    
    11    4   14 1    
    12    6    5 1    
    13    5   11 1    
    14    5   18 1    
    15    6   19 1    
    16    6   20 1    
    17    7   10 1    
    18    7   15 1    
    19    7   21 1    
    20   10    8 1    
    21    8   22 1    
    22    8   23 1    
    23    9   12 1    
    24    9   24 1    
    25    9   25 1    
    26   10   26 1    
    27   10   27 1    
    28   11   12 1    
    29   11   16 1    
    30   11   28 1    
    31   13   29 1    
    32   13   30 1    
    33   13   31 1    
    34   14   32 1    
    35   14   33 1    
    36   14   34 1    
    37   15   35 1    
    38   15   36 1    
    39   15   37 1    
    40   16   38 1    
    41   16   39 1    
    42   16   40 1    
@<TRIPOS>SUBSTRUCTURE
     1 ****        2 TEMP              0 ****  ****    0 ROOT 
@<TRIPOS>NORMAL
@<TRIPOS>FF_PBC
FORCE_FIELD_SETUP_FEATURE Force Field Setup information
v1.0  0 0.000000 0.000000 0.000000 0.000000 0.000000 0.000000 NONE 0 0 0 0 1 0 0 0 0 0 0 0 0
