@<TRIPOS>MOLECULE
MOL003590
   20    22     1     1     0
SMALL
GASTEIGER


@<TRIPOS>ATOM
      1 C          -0.562875    0.004266    0.039079 C.ar      1 <1>         0.109945 
      2 C           0.127958    1.215127    0.046127 C.ar      1 <1>         0.118065 
      3 C           0.237322   -1.237382   -0.072325 C.ar      1 <1>         0.006948 
      4 O          -1.952783   -0.024097    0.133747 O.3       1 <1>        -0.272881 
      5 C           1.588442    1.305226   -0.050977 C.ar      1 <1>         0.365348 
      6 C          -0.321896    2.606795    0.140367 C.ar      1 <1>         0.053243 
      7 C           1.663441   -1.171365   -0.168133 C.ar      1 <1>        -0.043196 
      8 C          -0.518141   -2.542910   -0.078816 C.2       1 <1>        -0.046418 
      9 C          -2.584721   -1.207283    0.123738 C.2       1 <1>         0.291599 
     10 C           2.357466    0.143904   -0.156822 C.ar      1 <1>         0.043817 
     11 O           2.034615    2.622770   -0.022288 O.2       1 <1>        -0.212321 
     12 C           0.837668    3.364228    0.094311 C.ar      1 <1>         0.322708 
     13 C          -1.850161   -2.485750    0.015643 C.2       1 <1>         0.010952 
     14 O          -3.801129   -1.220942    0.206619 O.2       1 <1>        -0.259479 
     15 H          -1.344088    2.960289    0.227264 H         1 <1>         0.071423 
     16 H           2.244024   -2.084864   -0.249574 H         1 <1>         0.062717 
     17 H           0.008562   -3.494891   -0.157877 H         1 <1>         0.062606 
     18 H           3.438080    0.205192   -0.229003 H         1 <1>         0.071164 
     19 H           0.830487    4.450105    0.144042 H         1 <1>         0.176011 
     20 H          -2.432071   -3.407918    0.014374 H         1 <1>         0.067748 
@<TRIPOS>BOND
     1    1    2 2    
     2    1    3 1    
     3    1    4 1    
     4    2    5 1    
     5    2    6 1    
     6    3    7 2    
     7    3    8 1    
     8    4    9 1    
     9    5   10 2    
    10    5   11 1    
    11    6   12 2    
    12    6   15 1    
    13    7   10 1    
    14    7   16 1    
    15    8   13 2    
    16    8   17 1    
    17    9   13 1    
    18    9   14 2    
    19   10   18 1    
    20   11   12 1    
    21   12   19 1    
    22   13   20 1    
@<TRIPOS>SUBSTRUCTURE
     1 ****        1 TEMP              0 ****  ****    0 ROOT 
@<TRIPOS>NORMAL
@<TRIPOS>FF_PBC
FORCE_FIELD_SETUP_FEATURE Force Field Setup information
v1.0  0 0.000000 0.000000 0.000000 0.000000 0.000000 0.000000 NONE 0 0 0 0 1 0 0 0 0 0 0 0 0
