@<TRIPOS>MOLECULE
MOL002164
   24    24     1     1     0
SMALL
GASTEIGER


@<TRIPOS>ATOM
      1 C           1.249628   -0.254398    0.471991 C.3       1 <1>         0.026674 
      2 C          -0.094461    0.448238    0.104816 C.3       1 <1>        -0.004660 
      3 C          -0.951305   -0.777455   -0.099924 C.2       1 <1>        -0.070209 
      4 C          -0.245092   -1.889516   -0.308883 C.2       1 <1>        -0.083816 
      5 C           1.229870   -1.621469   -0.264832 C.3       1 <1>        -0.024444 
      6 C           2.494518    0.542466    0.170820 C.2       1 <1>         0.124467 
      7 O           3.191782    0.968844    1.077180 O.2       1 <1>        -0.300702 
      8 C          -2.455871   -0.671414   -0.065664 C.3       1 <1>        -0.043257 
      9 C          -0.583609    1.381313    1.246776 C.3       1 <1>        -0.055458 
     10 C          -0.005295    1.232516   -1.234750 C.3       1 <1>        -0.055458 
     11 H           1.234834   -0.481267    1.552772 H         1 <1>         0.038580 
     12 H          -0.677020   -2.873023   -0.493758 H         1 <1>         0.057191 
     13 H           1.788091   -2.399517    0.280778 H         1 <1>         0.031429 
     14 H           1.609940   -1.552278   -1.295896 H         1 <1>         0.031429 
     15 H           2.796602    0.748351   -0.855312 H         1 <1>         0.102943 
     16 H          -2.806465    0.081716   -0.785659 H         1 <1>         0.027453 
     17 H          -2.791341   -0.387910    0.942524 H         1 <1>         0.027453 
     18 H          -2.918353   -1.636162   -0.323037 H         1 <1>         0.027453 
     19 H          -1.526947    1.874869    0.968162 H         1 <1>         0.023822 
     20 H           0.171988    2.157621    1.441648 H         1 <1>         0.023822 
     21 H          -0.750164    0.812622    2.174437 H         1 <1>         0.023822 
     22 H          -0.997030    1.606589   -1.528706 H         1 <1>         0.023822 
     23 H           0.372174    0.589105   -2.043874 H         1 <1>         0.023822 
     24 H           0.663431    2.100258   -1.131508 H         1 <1>         0.023822 
@<TRIPOS>BOND
     1    1    2 1    
     2    1    5 1    
     3    1    6 1    
     4    1   11 1    
     5    2    3 1    
     6    2    9 1    
     7    2   10 1    
     8    3    4 2    
     9    3    8 1    
    10    4    5 1    
    11    4   12 1    
    12    5   13 1    
    13    5   14 1    
    14    6    7 2    
    15    6   15 1    
    16    8   16 1    
    17    8   17 1    
    18    8   18 1    
    19    9   19 1    
    20    9   20 1    
    21    9   21 1    
    22   10   22 1    
    23   10   23 1    
    24   10   24 1    
@<TRIPOS>SUBSTRUCTURE
     1 ****        1 TEMP              0 ****  ****    0 ROOT 
@<TRIPOS>NORMAL
@<TRIPOS>FF_PBC
FORCE_FIELD_SETUP_FEATURE Force Field Setup information
v1.0  0 0.000000 0.000000 0.000000 0.000000 0.000000 0.000000 NONE 0 0 0 0 1 0 0 0 0 0 0 0 0
