@<TRIPOS>MOLECULE
MOL004624
   53    57     1     1     0
SMALL
GASTEIGER


@<TRIPOS>ATOM
      1 C          -0.816363    0.391826   -0.550404 C.3       1 <1>         0.004050 
      2 C          -1.322981   -0.628227    0.526810 C.3       1 <1>         0.003280 
      3 C          -0.221535   -1.708397    0.748156 C.3       1 <1>         0.113695 
      4 C           0.982892   -1.444353   -0.201307 C.3       1 <1>         0.209657 
      5 C           1.620883   -0.052858    0.040091 C.3       1 <1>         0.118785 
      6 C           0.514598    1.048510   -0.011020 C.3       1 <1>        -0.012715 
      7 C          -1.895375    1.488056   -0.796881 C.3       1 <1>        -0.044616 
      8 C          -3.324030    0.920131   -0.996794 C.3       1 <1>        -0.051970 
      9 C          -3.745452    0.059760    0.224525 C.3       1 <1>        -0.047498 
     10 C          -2.805448   -1.166221    0.446095 C.3       1 <1>        -0.028949 
     11 C           2.765170    0.261700   -0.968665 C.3       1 <1>         0.080058 
     12 C           3.415436    1.535158   -0.356666 C.3       1 <1>         0.014049 
     13 C           2.441226    2.749821   -0.408571 C.3       1 <1>        -0.043423 
     14 C           0.983911    2.335057   -0.769528 C.3       1 <1>        -0.047827 
     15 C          -3.171675   -1.813440    1.824007 C.3       1 <1>        -0.059457 
     16 C          -3.132197   -2.258896   -0.630754 C.3       1 <1>        -0.059457 
     17 C          -0.430370   -0.397888   -1.839109 C.3       1 <1>         0.057303 
     18 O           0.479582   -1.481572   -1.551466 O.3       1 <1>        -0.345073 
     19 H           2.414087    0.411350   -2.001839 H         1 <1>         0.061093 
     20 H           0.354547    1.400705    1.022445 H         1 <1>         0.031903 
     21 H          -1.345694   -0.023868    1.447625 H         1 <1>         0.033880 
     22 O           0.134186   -1.734094    2.143060 O.3       1 <1>        -0.386131 
     23 O           1.931557   -2.509070   -0.046611 O.3       1 <1>        -0.361779 
     24 C           2.472680    0.058486    1.275575 C.2       1 <1>         0.173124 
     25 C           3.516825    1.056582    1.064135 C.2       1 <1>        -0.005649 
     26 O           3.702098   -0.836017   -0.983916 O.3       1 <1>        -0.390009 
     27 C           4.418655    1.477214    1.957556 C.2       1 <1>        -0.091820 
     28 O           2.365095   -0.600901    2.296051 O.2       1 <1>        -0.291513 
     29 H          -0.564605   -2.715136    0.476854 H         1 <1>         0.065040 
     30 H          -1.631136    2.090194   -1.680889 H         1 <1>         0.027151 
     31 H          -1.925820    2.159276    0.077229 H         1 <1>         0.027151 
     32 H          -3.386586    0.352837   -1.935696 H         1 <1>         0.026563 
     33 H          -4.027822    1.765485   -1.090216 H         1 <1>         0.026563 
     34 H          -4.786811   -0.275843    0.089102 H         1 <1>         0.027053 
     35 H          -3.727750    0.708542    1.115884 H         1 <1>         0.027053 
     36 H           4.404343    1.759254   -0.789801 H         1 <1>         0.037507 
     37 H           2.795163    3.469675   -1.166428 H         1 <1>         0.027198 
     38 H           2.449668    3.275508    0.561376 H         1 <1>         0.027198 
     39 H           0.934277    2.203125   -1.858777 H         1 <1>         0.026862 
     40 H           0.319699    3.184446   -0.535931 H         1 <1>         0.026862 
     41 H          -4.228437   -2.121397    1.849242 H         1 <1>         0.023508 
     42 H          -3.019402   -1.117331    2.663096 H         1 <1>         0.023508 
     43 H          -2.555357   -2.705242    2.012310 H         1 <1>         0.023508 
     44 H          -3.060362   -1.918390   -1.665121 H         1 <1>         0.023508 
     45 H          -2.512250   -3.158614   -0.533564 H         1 <1>         0.023508 
     46 H          -4.174781   -2.591074   -0.509334 H         1 <1>         0.023508 
     47 H           0.047911    0.250406   -2.582632 H         1 <1>         0.056650 
     48 H          -1.289115   -0.823022   -2.360286 H         1 <1>         0.056650 
     49 H           0.902758   -2.273433    2.309517 H         1 <1>         0.210022 
     50 H           2.672123   -2.381531   -0.632531 H         1 <1>         0.212866 
     51 H           4.463528   -0.671443   -1.533343 H         1 <1>         0.209844 
     52 H           4.422112    1.070245    2.968255 H         1 <1>         0.053863 
     53 H           5.159947    2.229607    1.691086 H         1 <1>         0.053863 
@<TRIPOS>BOND
     1    1    2 1    
     2    1    6 1    
     3    1    7 1    
     4    1   17 1    
     5    2    3 1    
     6    2   10 1    
     7    2   21 1    
     8    3    4 1    
     9    3   22 1    
    10    3   29 1    
    11    4    5 1    
    12    4   18 1    
    13    4   23 1    
    14    5    6 1    
    15    5   11 1    
    16    5   24 1    
    17    6   14 1    
    18    6   20 1    
    19    7    8 1    
    20    7   30 1    
    21    7   31 1    
    22    8    9 1    
    23    8   32 1    
    24    8   33 1    
    25    9   10 1    
    26    9   34 1    
    27    9   35 1    
    28   10   15 1    
    29   10   16 1    
    30   11   12 1    
    31   11   19 1    
    32   11   26 1    
    33   12   13 1    
    34   12   25 1    
    35   12   36 1    
    36   13   14 1    
    37   13   37 1    
    38   13   38 1    
    39   14   39 1    
    40   14   40 1    
    41   15   41 1    
    42   15   42 1    
    43   15   43 1    
    44   16   44 1    
    45   16   45 1    
    46   16   46 1    
    47   17   18 1    
    48   17   47 1    
    49   17   48 1    
    50   22   49 1    
    51   23   50 1    
    52   24   25 1    
    53   24   28 2    
    54   25   27 2    
    55   26   51 1    
    56   27   52 1    
    57   27   53 1    
@<TRIPOS>SUBSTRUCTURE
     1 ****        1 TEMP              0 ****  ****    0 ROOT 
@<TRIPOS>NORMAL
@<TRIPOS>FF_PBC
FORCE_FIELD_SETUP_FEATURE Force Field Setup information
v1.0  0 0.000000 0.000000 0.000000 0.000000 0.000000 0.000000 NONE 0 0 0 0 1 0 0 0 0 0 0 0 0
