@<TRIPOS>MOLECULE
MOL002929
   41    42     1     1     0
SMALL
GASTEIGER


@<TRIPOS>ATOM
      1 C          -1.047436   -1.173758   -1.458596 C.3       1 <1>         0.187911 
      2 O          -1.959402   -0.069981   -1.329703 O.3       1 <1>        -0.340534 
      3 C          -1.822751   -2.510984   -1.386939 C.3       1 <1>         0.134111 
      4 O          -0.073850   -1.100698   -0.396243 O.3       1 <1>        -0.348365 
      5 C          -2.645813   -0.064601   -0.057701 C.3       1 <1>         0.113005 
      6 C          -2.519934   -2.606276   -0.010569 C.3       1 <1>         0.114061 
      7 O          -0.916795   -3.613043   -1.597663 O.3       1 <1>        -0.384104 
      8 C           0.834285    0.013124   -0.520582 C.3       1 <1>         0.054725 
      9 C          -3.456774   -1.375615    0.157046 C.3       1 <1>         0.111896 
     10 C          -3.559965    1.186922   -0.019154 C.3       1 <1>         0.073015 
     11 O          -3.268073   -3.840215    0.027444 O.3       1 <1>        -0.386401 
     12 C           1.705007    0.043505    0.761708 C.3       1 <1>        -0.004046 
     13 O          -4.537235   -1.450833   -0.791540 O.3       1 <1>        -0.386488 
     14 O          -2.725516    2.361940    0.037094 O.3       1 <1>        -0.392366 
     15 C           2.889738    1.026275    0.747643 C.ar      1 <1>        -0.045036 
     16 C           3.811987    0.999936    1.911016 C.ar      1 <1>        -0.056070 
     17 C           3.150355    1.947949   -0.302850 C.ar      1 <1>        -0.056070 
     18 C           4.927916    1.850267    1.971802 C.ar      1 <1>        -0.031681 
     19 C           4.332715    2.843449   -0.240743 C.ar      1 <1>        -0.031681 
     20 C           5.208384    2.795340    0.871014 C.ar      1 <1>         0.072598 
     21 O           6.334044    3.618050    0.952753 O.3       1 <1>        -0.359832 
     22 H          -0.560401   -1.127607   -2.444729 H         1 <1>         0.093740 
     23 H          -2.584782   -2.508564   -2.183520 H         1 <1>         0.067095 
     24 H          -1.922842    0.043393    0.769803 H         1 <1>         0.064668 
     25 H          -1.738633   -2.614675    0.772499 H         1 <1>         0.064758 
     26 H          -1.363539   -4.450678   -1.531230 H         1 <1>         0.210110 
     27 H           1.475115   -0.148928   -1.402973 H         1 <1>         0.056391 
     28 H           0.291990    0.968931   -0.622826 H         1 <1>         0.056391 
     29 H          -3.877890   -1.384553    1.178013 H         1 <1>         0.064673 
     30 H          -4.187201    1.196233   -0.926291 H         1 <1>         0.058370 
     31 H          -4.215735    1.149986    0.867809 H         1 <1>         0.058370 
     32 H          -3.688023   -3.994956    0.867826 H         1 <1>         0.210005 
     33 H           1.061288    0.290035    1.622634 H         1 <1>         0.033542 
     34 H           2.124230   -0.965055    0.911638 H         1 <1>         0.033542 
     35 H          -5.022779   -2.268996   -0.720104 H         1 <1>         0.210004 
     36 H          -3.218285    3.177372    0.044555 H         1 <1>         0.209508 
     37 H           3.620912    0.313328    2.728241 H         1 <1>         0.062109 
     38 H           2.502014    2.019082   -1.168972 H         1 <1>         0.062109 
     39 H           5.593679    1.819806    2.828359 H         1 <1>         0.064328 
     40 H           4.513441    3.530614   -1.061090 H         1 <1>         0.064328 
     41 H           6.536153    4.074783    0.145023 H         1 <1>         0.217313 
@<TRIPOS>BOND
     1    1    2 1    
     2    1    3 1    
     3    1    4 1    
     4    1   22 1    
     5    2    5 1    
     6    3    6 1    
     7    3    7 1    
     8    3   23 1    
     9    4    8 1    
    10    5    9 1    
    11    5   10 1    
    12    5   24 1    
    13    6    9 1    
    14    6   11 1    
    15    6   25 1    
    16    7   26 1    
    17    8   12 1    
    18    8   27 1    
    19    8   28 1    
    20    9   13 1    
    21    9   29 1    
    22   10   14 1    
    23   10   30 1    
    24   10   31 1    
    25   11   32 1    
    26   12   15 1    
    27   12   33 1    
    28   12   34 1    
    29   13   35 1    
    30   14   36 1    
    31   15   16 1    
    32   15   17 2    
    33   16   18 2    
    34   16   37 1    
    35   17   19 1    
    36   17   38 1    
    37   18   20 1    
    38   18   39 1    
    39   19   20 2    
    40   19   40 1    
    41   20   21 1    
    42   21   41 1    
@<TRIPOS>SUBSTRUCTURE
     1 ****        1 TEMP              0 ****  ****    0 ROOT 
@<TRIPOS>NORMAL
@<TRIPOS>FF_PBC
FORCE_FIELD_SETUP_FEATURE Force Field Setup information
v1.0  0 0.000000 0.000000 0.000000 0.000000 0.000000 0.000000 NONE 0 0 0 0 1 0 0 0 0 0 0 0 0
