@<TRIPOS>MOLECULE
MOL002129
   34    34     1     1     0
SMALL
GASTEIGER


@<TRIPOS>ATOM
      1 C          -2.782989   -0.860555   -0.726232 C.2       1 <1>        -0.087932 
      2 C          -2.024456   -1.762317   -1.374444 C.2       1 <1>        -0.087932 
      3 C          -0.668273   -2.274552   -0.927398 C.3       1 <1>        -0.034761 
      4 C           0.393686   -1.187348   -1.239177 C.3       1 <1>        -0.049616 
      5 C           1.773345   -1.424695   -0.565965 C.3       1 <1>        -0.052779 
      6 C           2.734781   -0.207258   -0.741029 C.3       1 <1>        -0.053048 
      7 C           2.673496    0.925158    0.338315 C.3       1 <1>        -0.053057 
      8 C           1.347483    1.744453    0.452785 C.3       1 <1>        -0.053057 
      9 C           0.387184    1.178695    1.544685 C.3       1 <1>        -0.053048 
     10 C          -1.048303    1.796084    1.534096 C.3       1 <1>        -0.052779 
     11 C          -1.994371    1.292726    0.399947 C.3       1 <1>        -0.049616 
     12 C          -2.452269   -0.187786    0.590294 C.3       1 <1>        -0.034761 
     13 H          -3.730525   -0.567913   -1.183539 H         1 <1>         0.056896 
     14 H          -2.404318   -2.154278   -2.320497 H         1 <1>         0.056896 
     15 H          -0.674681   -2.529821    0.141908 H         1 <1>         0.030732 
     16 H          -0.410634   -3.198648   -1.470343 H         1 <1>         0.030732 
     17 H           0.002957   -0.241042   -0.874282 H         1 <1>         0.026822 
     18 H           0.511506   -1.093472   -2.331828 H         1 <1>         0.026822 
     19 H           1.673269   -1.661259    0.504311 H         1 <1>         0.026538 
     20 H           2.205791   -2.312515   -1.058412 H         1 <1>         0.026538 
     21 H           2.596069    0.229702   -1.743518 H         1 <1>         0.026529 
     22 H           3.764562   -0.605196   -0.703333 H         1 <1>         0.026529 
     23 H           2.940128    0.511107    1.324493 H         1 <1>         0.026528 
     24 H           3.472701    1.637253    0.064846 H         1 <1>         0.026528 
     25 H           0.884526    1.834461   -0.539278 H         1 <1>         0.026528 
     26 H           1.587339    2.775566    0.767243 H         1 <1>         0.026528 
     27 H           0.346022    0.086655    1.482801 H         1 <1>         0.026529 
     28 H           0.842384    1.407217    2.524350 H         1 <1>         0.026529 
     29 H          -0.945553    2.891769    1.463093 H         1 <1>         0.026538 
     30 H          -1.543956    1.570389    2.493476 H         1 <1>         0.026538 
     31 H          -1.507584    1.442966   -0.573291 H         1 <1>         0.026822 
     32 H          -2.899264    1.924379    0.384134 H         1 <1>         0.026822 
     33 H          -1.700213   -0.767685    1.130631 H         1 <1>         0.030732 
     34 H          -3.349541   -0.212346    1.230754 H         1 <1>         0.030732 
@<TRIPOS>BOND
     1    1    2 2    
     2    1   12 1    
     3    1   13 1    
     4    2    3 1    
     5    2   14 1    
     6    3    4 1    
     7    3   15 1    
     8    3   16 1    
     9    4    5 1    
    10    4   17 1    
    11    4   18 1    
    12    5    6 1    
    13    5   19 1    
    14    5   20 1    
    15    6    7 1    
    16    6   21 1    
    17    6   22 1    
    18    7    8 1    
    19    7   23 1    
    20    7   24 1    
    21    8    9 1    
    22    8   25 1    
    23    8   26 1    
    24    9   10 1    
    25    9   27 1    
    26    9   28 1    
    27   10   11 1    
    28   10   29 1    
    29   10   30 1    
    30   11   12 1    
    31   11   31 1    
    32   11   32 1    
    33   12   33 1    
    34   12   34 1    
@<TRIPOS>SUBSTRUCTURE
     1 ****        1 TEMP              0 ****  ****    0 ROOT 
@<TRIPOS>NORMAL
@<TRIPOS>FF_PBC
FORCE_FIELD_SETUP_FEATURE Force Field Setup information
v1.0  0 0.000000 0.000000 0.000000 0.000000 0.000000 0.000000 NONE 0 0 0 0 1 0 0 0 0 0 0 0 0
