@<TRIPOS>MOLECULE
MOL000106
   15    15     1     1     0
SMALL
GASTEIGER


@<TRIPOS>ATOM
      1 C           0.959061    1.488977    0.000000 C.ar      1 <1>        -0.056733 
      2 C          -0.438023    1.513989    0.000000 C.ar      1 <1>        -0.029240 
      3 C          -1.159462    0.313823    0.000000 C.ar      1 <1>         0.104772 
      4 C          -0.478293   -0.910424   -0.000000 C.ar      1 <1>         0.132415 
      5 C           0.921894   -0.937870   -0.000000 C.ar      1 <1>         0.104772 
      6 C           1.636886    0.266808   -0.000000 C.ar      1 <1>        -0.029240 
      7 O           1.587324   -2.170388   -0.000000 O.3       1 <1>        -0.357214 
      8 O          -1.194989   -2.112916    0.000000 O.3       1 <1>        -0.355395 
      9 O          -2.559703    0.308078    0.000000 O.3       1 <1>        -0.357214 
     10 H           1.518492    2.420074    0.000000 H         1 <1>         0.061918 
     11 H          -0.953809    2.468844   -0.000000 H         1 <1>         0.064405 
     12 H           2.722127    0.262882   -0.000000 H         1 <1>         0.064405 
     13 H           2.535952   -2.113838    0.000000 H         1 <1>         0.217423 
     14 H          -2.136044   -1.967419   -0.000000 H         1 <1>         0.217501 
     15 H          -2.960412    1.170383   -0.000000 H         1 <1>         0.217423 
@<TRIPOS>BOND
     1    1    2 ar   
     2    1    6 ar   
     3    1   10 1    
     4    2    3 ar   
     5    2   11 1    
     6    3    4 ar   
     7    3    9 1    
     8    4    5 ar   
     9    4    8 1    
    10    5    6 ar   
    11    5    7 1    
    12    6   12 1    
    13    7   13 1    
    14    8   14 1    
    15    9   15 1    
@<TRIPOS>SUBSTRUCTURE
     1 ****        1 TEMP              0 ****  ****    0 ROOT 
@<TRIPOS>NORMAL
@<TRIPOS>FF_PBC
FORCE_FIELD_SETUP_FEATURE Force Field Setup information
v1.0  0 0.000000 0.000000 0.000000 0.000000 0.000000 0.000000 NONE 0 0 0 0 1 0 0 0 0 0 0 0 0
