@<TRIPOS>MOLECULE
MOL001123
   39    40     1     1     0
SMALL
GASTEIGER


@<TRIPOS>ATOM
      1 C          -1.488541    1.636453    1.393953 C.3       1 <1>        -0.031439 
      2 C          -1.310959    0.270235    2.022043 C.2       1 <1>        -0.076221 
      3 C          -0.349559   -0.581486    1.638764 C.2       1 <1>        -0.081089 
      4 C           0.621212   -0.267404    0.535394 C.3       1 <1>        -0.012816 
      5 C           0.947407    1.250005    0.608587 C.3       1 <1>        -0.013345 
      6 C          -0.331176    2.119103    0.467724 C.3       1 <1>        -0.042294 
      7 C           0.167921   -0.691907   -0.895886 C.3       1 <1>        -0.028460 
      8 C           1.379214   -0.402434   -1.830967 C.3       1 <1>        -0.030882 
      9 C           2.134163    0.875673   -1.545934 C.2       1 <1>        -0.084455 
     10 C           1.958560    1.624881   -0.450049 C.2       1 <1>        -0.072867 
     11 C          -2.293509   -0.080475    3.119407 C.3       1 <1>        -0.043778 
     12 C          -0.346779   -2.174760   -1.010152 C.3       1 <1>        -0.043057 
     13 C           2.765810    2.885434   -0.210660 C.3       1 <1>        -0.043506 
     14 C          -1.812645   -2.355538   -0.506673 C.3       1 <1>        -0.062386 
     15 C          -0.319342   -2.701548   -2.479557 C.3       1 <1>        -0.062386 
     16 H          -1.598418    2.358552    2.221663 H         1 <1>         0.031008 
     17 H          -2.440282    1.628751    0.835935 H         1 <1>         0.031008 
     18 H          -0.250803   -1.550451    2.133711 H         1 <1>         0.057459 
     19 H           1.550255   -0.817433    0.767670 H         1 <1>         0.035161 
     20 H           1.378409    1.438037    1.605518 H         1 <1>         0.035135 
     21 H          -0.087880    3.168150    0.707359 H         1 <1>         0.027417 
     22 H          -0.656510    2.119771   -0.583237 H         1 <1>         0.027417 
     23 H          -0.669181   -0.057938   -1.220170 H         1 <1>         0.031203 
     24 H           1.040868   -0.357925   -2.878831 H         1 <1>         0.031034 
     25 H           2.119687   -1.212107   -1.728519 H         1 <1>         0.031034 
     26 H           2.871010    1.176580   -2.291394 H         1 <1>         0.057172 
     27 H          -3.316793   -0.022249    2.718770 H         1 <1>         0.027436 
     28 H          -2.144154   -1.092934    3.525190 H         1 <1>         0.027436 
     29 H          -2.197406    0.634617    3.951241 H         1 <1>         0.027436 
     30 H           0.319861   -2.821543   -0.414649 H         1 <1>         0.029841 
     31 H           3.504555    3.073971   -1.004889 H         1 <1>         0.027445 
     32 H           2.101071    3.758663   -0.158762 H         1 <1>         0.027445 
     33 H           3.311952    2.800436    0.741059 H         1 <1>         0.027445 
     34 H          -2.135938   -3.399442   -0.631944 H         1 <1>         0.023242 
     35 H          -1.955571   -2.115159    0.549790 H         1 <1>         0.023242 
     36 H          -2.490468   -1.718060   -1.091289 H         1 <1>         0.023242 
     37 H          -0.745846   -3.716430   -2.540730 H         1 <1>         0.023242 
     38 H           0.702453   -2.769403   -2.883739 H         1 <1>         0.023242 
     39 H          -0.913893   -2.039958   -3.130036 H         1 <1>         0.023242 
@<TRIPOS>BOND
     1    1    2 1    
     2    1    6 1    
     3    1   16 1    
     4    1   17 1    
     5    2    3 2    
     6    2   11 1    
     7    3    4 1    
     8    3   18 1    
     9    4    5 1    
    10    4    7 1    
    11    4   19 1    
    12    5    6 1    
    13    5   10 1    
    14    5   20 1    
    15    6   21 1    
    16    6   22 1    
    17    7    8 1    
    18    7   12 1    
    19    7   23 1    
    20    8    9 1    
    21    8   24 1    
    22    8   25 1    
    23    9   10 2    
    24    9   26 1    
    25   10   13 1    
    26   11   27 1    
    27   11   28 1    
    28   11   29 1    
    29   12   14 1    
    30   12   15 1    
    31   12   30 1    
    32   13   31 1    
    33   13   32 1    
    34   13   33 1    
    35   14   34 1    
    36   14   35 1    
    37   14   36 1    
    38   15   37 1    
    39   15   38 1    
    40   15   39 1    
@<TRIPOS>SUBSTRUCTURE
     1 ****        1 TEMP              0 ****  ****    0 ROOT 
@<TRIPOS>NORMAL
@<TRIPOS>FF_PBC
FORCE_FIELD_SETUP_FEATURE Force Field Setup information
v1.0  0 0.000000 0.000000 0.000000 0.000000 0.000000 0.000000 NONE 0 0 0 0 1 0 0 0 0 0 0 0 0
