@<TRIPOS>MOLECULE
MOL002908
   34    36     1     1     0
SMALL
GASTEIGER


@<TRIPOS>ATOM
      1 C           1.554487    0.038937    0.020894 C.2       1 <1>         0.096433 
      2 C           2.094756    1.267496    0.052317 C.2       1 <1>         0.017005 
      3 C           1.246983    2.467102    0.065029 C.2       1 <1>         0.193596 
      4 O           1.751729    3.577514    0.093561 O.2       1 <1>        -0.287016 
      5 C          -0.247079    2.268683    0.041686 C.ar      1 <1>         0.084485 
      6 C          -1.215626    3.390120    0.051332 C.ar      1 <1>         0.088490 
      7 C          -2.600475    3.099888    0.027633 C.ar      1 <1>         0.001484 
      8 C          -3.092822    1.702302   -0.006411 C.ar      1 <1>         0.110466 
      9 C          -2.137885    0.631813   -0.015246 C.ar      1 <1>         0.134325 
     10 C          -0.689397    0.950791    0.009820 C.ar      1 <1>         0.128503 
     11 O           0.222720   -0.106230    0.000656 O.3       1 <1>        -0.305049 
     12 C           2.365706   -1.247625    0.005939 C.ar      1 <1>         0.035278 
     13 C           1.644596   -2.553552   -0.028762 C.ar      1 <1>         0.082185 
     14 C           2.377791   -3.769829   -0.043308 C.ar      1 <1>        -0.031275 
     15 C           3.857224   -3.765519   -0.024511 C.ar      1 <1>        -0.059290 
     16 C           4.541313   -2.554472    0.007846 C.ar      1 <1>        -0.060964 
     17 C           3.795667   -1.274077    0.023475 C.ar      1 <1>        -0.049637 
     18 O          -4.481070    1.496585   -0.028447 O.3       1 <1>        -0.345178 
     19 C          -5.073781    0.188662   -0.061734 C.3       1 <1>         0.043138 
     20 O          -2.536420   -0.707885   -0.046923 O.3       1 <1>        -0.355356 
     21 O          -0.751051    4.707467    0.083432 O.3       1 <1>        -0.358953 
     22 O           0.243971   -2.581013   -0.047018 O.3       1 <1>        -0.359161 
     23 H           3.159318    1.477814    0.070409 H         1 <1>         0.068220 
     24 H          -3.330075    3.901784    0.034049 H         1 <1>         0.067015 
     25 H           1.861448   -4.723392   -0.068510 H         1 <1>         0.064340 
     26 H           4.403304   -4.703766   -0.035969 H         1 <1>         0.061837 
     27 H           5.626964   -2.546461    0.021736 H         1 <1>         0.061779 
     28 H           4.385900   -0.369245    0.048614 H         1 <1>         0.062505 
     29 H          -6.165711    0.318576   -0.073229 H         1 <1>         0.052871 
     30 H          -4.783198   -0.355640   -0.973204 H         1 <1>         0.052871 
     31 H          -4.806441   -0.391109    0.834858 H         1 <1>         0.052871 
     32 H          -1.783598   -1.294267   -0.048692 H         1 <1>         0.217502 
     33 H          -1.431427    5.371333    0.087492 H         1 <1>         0.217342 
     34 H          -0.135545   -3.452034   -0.069406 H         1 <1>         0.217339 
@<TRIPOS>BOND
     1    1    2 2    
     2    1   11 1    
     3    1   12 1    
     4    2    3 1    
     5    2   23 1    
     6    3    4 2    
     7    3    5 1    
     8    5    6 1    
     9    5   10 2    
    10    6    7 2    
    11    6   21 1    
    12    7    8 1    
    13    7   24 1    
    14    8    9 2    
    15    8   18 1    
    16    9   10 1    
    17    9   20 1    
    18   10   11 1    
    19   12   13 1    
    20   12   17 2    
    21   13   14 2    
    22   13   22 1    
    23   14   15 1    
    24   14   25 1    
    25   15   16 2    
    26   15   26 1    
    27   16   17 1    
    28   16   27 1    
    29   17   28 1    
    30   18   19 1    
    31   19   29 1    
    32   19   30 1    
    33   19   31 1    
    34   20   32 1    
    35   21   33 1    
    36   22   34 1    
@<TRIPOS>SUBSTRUCTURE
     1 ****        1 TEMP              0 ****  ****    0 ROOT 
@<TRIPOS>NORMAL
@<TRIPOS>FF_PBC
FORCE_FIELD_SETUP_FEATURE Force Field Setup information
v1.0  0 0.000000 0.000000 0.000000 0.000000 0.000000 0.000000 NONE 0 0 0 0 1 0 0 0 0 0 0 0 0
