@<TRIPOS>MOLECULE
MOL013438
   72    74     1     1     0
SMALL
GASTEIGER


@<TRIPOS>ATOM
      1 O           1.371264   -4.785624    1.264366 O.3       1 <1>        -0.309981 
      2 C           0.773898   -5.422674    0.125037 C.3       1 <1>         0.193752 
      3 C           0.504498   -6.909752    0.464064 C.3       1 <1>         0.134511 
      4 O           1.750831   -7.612932    0.633896 O.3       1 <1>        -0.384091 
      5 C          -0.310061   -7.563370   -0.680027 C.3       1 <1>         0.114074 
      6 O          -0.651161   -8.912104   -0.301782 O.3       1 <1>        -0.386401 
      7 C          -1.589406   -6.738292   -0.971548 C.3       1 <1>         0.111896 
      8 O          -2.238457   -7.329738   -2.115077 O.3       1 <1>        -0.386488 
      9 C          -1.205184   -5.258068   -1.239875 C.3       1 <1>         0.113017 
     10 O          -0.456666   -4.719402   -0.133472 O.3       1 <1>        -0.340166 
     11 C          -2.475196   -4.386772   -1.409384 C.3       1 <1>         0.073015 
     12 O          -3.349902   -4.978319   -2.390504 O.3       1 <1>        -0.392366 
     13 C           1.501575   -3.389828    1.302953 C.ar      1 <1>         0.109318 
     14 C           1.463381   -2.689419    2.612750 C.ar      1 <1>         0.106113 
     15 C           1.570189   -1.288696    2.673697 C.ar      1 <1>        -0.023435 
     16 C           1.746978   -0.485535    1.439712 C.ar      1 <1>        -0.013993 
     17 C           1.803757   -1.149400    0.197696 C.ar      1 <1>        -0.053439 
     18 C           1.670033   -2.623158    0.122707 C.ar      1 <1>        -0.028686 
     19 O           1.327784   -3.411232    3.801772 O.3       1 <1>        -0.345330 
     20 C           0.029388   -3.984735    4.012527 C.3       1 <1>         0.043136 
     21 C           1.876260    1.044151    1.515293 C.3       1 <1>         0.108968 
     22 C           0.721043    1.745284    0.750372 C.3       1 <1>         0.118121 
     23 C          -0.653393    1.161105    1.186281 C.3       1 <1>         0.073654 
     24 O           0.802930    3.159401    1.027249 O.3       1 <1>        -0.333734 
     25 C           0.252647    4.155588    0.202320 C.ar      1 <1>         0.106635 
     26 C           0.513195    5.581516    0.533544 C.ar      1 <1>         0.106236 
     27 C           0.028653    6.604871   -0.330223 C.ar      1 <1>        -0.022002 
     28 C          -0.729579    6.265856   -1.559491 C.ar      1 <1>        -0.022655 
     29 C          -1.026080    4.923365   -1.832124 C.ar      1 <1>        -0.052001 
     30 C          -0.534176    3.845227   -0.944096 C.ar      1 <1>        -0.028564 
     31 O           1.232096    5.881967    1.702127 O.3       1 <1>        -0.345323 
     32 C           1.529417    7.232058    2.095719 C.3       1 <1>         0.043136 
     33 C          -1.190822    7.330792   -2.533203 C.2       1 <1>        -0.056303 
     34 C          -0.514533    8.471487   -2.730214 C.2       1 <1>        -0.058388 
     35 C          -0.952988    9.543050   -3.695379 C.3       1 <1>         0.062691 
     36 O           0.146715    9.794909   -4.586779 O.3       1 <1>        -0.390992 
     37 O          -0.671765    0.942700    2.611361 O.3       1 <1>        -0.392340 
     38 O           3.141413    1.413787    0.936562 O.3       1 <1>        -0.384504 
     39 H           1.466026   -5.391092   -0.731462 H         1 <1>         0.094161 
     40 H          -0.084543   -6.942741    1.395904 H         1 <1>         0.067108 
     41 H           1.614393   -8.534216    0.836718 H         1 <1>         0.210111 
     42 H           0.319917   -7.584856   -1.586878 H         1 <1>         0.064758 
     43 H          -1.158948   -9.351573   -0.979379 H         1 <1>         0.210005 
     44 H          -2.247297   -6.792710   -0.086518 H         1 <1>         0.064673 
     45 H          -3.011392   -6.834873   -2.379734 H         1 <1>         0.210004 
     46 H          -0.623791   -5.205680   -2.175769 H         1 <1>         0.064668 
     47 H          -2.171292   -3.371809   -1.714102 H         1 <1>         0.058370 
     48 H          -2.989857   -4.318882   -0.436869 H         1 <1>         0.058370 
     49 H          -4.146123   -4.471849   -2.530843 H         1 <1>         0.209508 
     50 H           1.525056   -0.800846    3.641435 H         1 <1>         0.064767 
     51 H           1.950026   -0.586816   -0.716890 H         1 <1>         0.062192 
     52 H           1.706465   -3.090558   -0.853505 H         1 <1>         0.064422 
     53 H           0.043575   -4.507101    4.980200 H         1 <1>         0.052871 
     54 H          -0.737315   -3.195758    4.048242 H         1 <1>         0.052871 
     55 H          -0.229235   -4.710197    3.226672 H         1 <1>         0.052871 
     56 H           1.836953    1.387840    2.563154 H         1 <1>         0.067050 
     57 H           0.921805    1.572176   -0.317929 H         1 <1>         0.065358 
     58 H          -1.462864    1.854438    0.904936 H         1 <1>         0.058395 
     59 H          -0.819244    0.200430    0.670196 H         1 <1>         0.058395 
     60 H           0.199171    7.646995   -0.097005 H         1 <1>         0.065001 
     61 H          -1.605502    4.663069   -2.711344 H         1 <1>         0.062425 
     62 H          -0.783880    2.827334   -1.210043 H         1 <1>         0.064429 
     63 H           2.101528    7.187978    3.034279 H         1 <1>         0.052871 
     64 H           0.607875    7.805498    2.281355 H         1 <1>         0.052871 
     65 H           2.148258    7.738563    1.338965 H         1 <1>         0.052871 
     66 H          -2.104054    7.135268   -3.093800 H         1 <1>         0.062105 
     67 H           0.411318    8.676428   -2.193839 H         1 <1>         0.059478 
     68 H          -1.199088   10.450743   -3.119458 H         1 <1>         0.060128 
     69 H          -1.843184    9.236740   -4.268888 H         1 <1>         0.060128 
     70 H          -0.032040   10.482483   -5.221445 H         1 <1>         0.209823 
     71 H          -1.494271    0.579606    2.927097 H         1 <1>         0.209508 
     72 H           3.881477    1.029436    1.396709 H         1 <1>         0.210345 
@<TRIPOS>BOND
     1    1    2 1    
     2    1   13 1    
     3    2    3 1    
     4    2   10 1    
     5    2   39 1    
     6    3    4 1    
     7    3    5 1    
     8    3   40 1    
     9    4   41 1    
    10    5    6 1    
    11    5    7 1    
    12    5   42 1    
    13    6   43 1    
    14    7    8 1    
    15    7    9 1    
    16    7   44 1    
    17    8   45 1    
    18    9   10 1    
    19    9   11 1    
    20    9   46 1    
    21   11   12 1    
    22   11   47 1    
    23   11   48 1    
    24   12   49 1    
    25   13   14 1    
    26   13   18 2    
    27   14   15 2    
    28   14   19 1    
    29   15   16 1    
    30   15   50 1    
    31   16   17 2    
    32   16   21 1    
    33   17   18 1    
    34   17   51 1    
    35   18   52 1    
    36   19   20 1    
    37   20   53 1    
    38   20   54 1    
    39   20   55 1    
    40   21   22 1    
    41   21   38 1    
    42   21   56 1    
    43   22   23 1    
    44   22   24 1    
    45   22   57 1    
    46   23   37 1    
    47   23   58 1    
    48   23   59 1    
    49   24   25 1    
    50   25   26 1    
    51   25   30 2    
    52   26   27 2    
    53   26   31 1    
    54   27   28 1    
    55   27   60 1    
    56   28   29 2    
    57   28   33 1    
    58   29   30 1    
    59   29   61 1    
    60   30   62 1    
    61   31   32 1    
    62   32   63 1    
    63   32   64 1    
    64   32   65 1    
    65   33   34 2    
    66   33   66 1    
    67   34   35 1    
    68   34   67 1    
    69   35   36 1    
    70   35   68 1    
    71   35   69 1    
    72   36   70 1    
    73   37   71 1    
    74   38   72 1    
@<TRIPOS>SUBSTRUCTURE
     1 ****        1 TEMP              0 ****  ****    0 ROOT 
@<TRIPOS>NORMAL
@<TRIPOS>FF_PBC
FORCE_FIELD_SETUP_FEATURE Force Field Setup information
v1.0  0 0.000000 0.000000 0.000000 0.000000 0.000000 0.000000 NONE 0 0 0 0 1 0 0 0 0 0 0 0 0
