@<TRIPOS>MOLECULE
MOL000709
   25    24     1     1     0
SMALL
GASTEIGER


@<TRIPOS>ATOM
      1 C          -1.508450   -1.722738    0.778793 C.3       1 <1>         0.073114 
      2 C          -0.167908   -0.946013    0.918607 C.3       1 <1>        -0.023254 
      3 C          -2.708355   -0.799056    0.786092 C.2       1 <1>        -0.063006 
      4 O          -1.498283   -2.466901   -0.451491 O.3       1 <1>        -0.387778 
      5 C           0.146080   -0.027544   -0.297029 C.3       1 <1>        -0.050434 
      6 C          -3.643619   -0.811201    1.744204 C.2       1 <1>        -0.100226 
      7 C           1.540949    0.648252   -0.174161 C.3       1 <1>        -0.053216 
      8 C           1.853361    1.517359   -1.423983 C.3       1 <1>        -0.055910 
      9 C           3.243300    2.197556   -1.320728 C.3       1 <1>        -0.065276 
     10 H          -1.570036   -2.436310    1.621354 H         1 <1>         0.063734 
     11 H          -0.192577   -0.343545    1.841386 H         1 <1>         0.029318 
     12 H           0.645139   -1.685809    1.010809 H         1 <1>         0.029318 
     13 H          -2.822399   -0.093670   -0.037273 H         1 <1>         0.059165 
     14 H          -2.294241   -2.972912   -0.582622 H         1 <1>         0.210206 
     15 H           0.118146   -0.629227   -1.220020 H         1 <1>         0.026618 
     16 H          -0.616997    0.761693   -0.378828 H         1 <1>         0.026618 
     17 H          -4.493482   -0.128818    1.699112 H         1 <1>         0.053253 
     18 H          -3.591756   -1.496818    2.589273 H         1 <1>         0.053253 
     19 H           1.564508    1.281713    0.728107 H         1 <1>         0.026521 
     20 H           2.316917   -0.128301   -0.074613 H         1 <1>         0.026521 
     21 H           1.835969    0.883461   -2.325564 H         1 <1>         0.026265 
     22 H           1.082029    2.296954   -1.537293 H         1 <1>         0.026265 
     23 H           3.450950    2.777673   -2.234643 H         1 <1>         0.022978 
     24 H           3.275347    2.882394   -0.458503 H         1 <1>         0.022978 
     25 H           4.035507    1.441908   -1.200985 H         1 <1>         0.022978 
@<TRIPOS>BOND
     1    1    2 1    
     2    1    3 1    
     3    1    4 1    
     4    1   10 1    
     5    2    5 1    
     6    2   11 1    
     7    2   12 1    
     8    3    6 2    
     9    3   13 1    
    10    4   14 1    
    11    5    7 1    
    12    5   15 1    
    13    5   16 1    
    14    6   17 1    
    15    6   18 1    
    16    7    8 1    
    17    7   19 1    
    18    7   20 1    
    19    8    9 1    
    20    8   21 1    
    21    8   22 1    
    22    9   23 1    
    23    9   24 1    
    24    9   25 1    
@<TRIPOS>SUBSTRUCTURE
     1 ****        1 TEMP              0 ****  ****    0 ROOT 
@<TRIPOS>NORMAL
@<TRIPOS>FF_PBC
FORCE_FIELD_SETUP_FEATURE Force Field Setup information
v1.0  0 0.000000 0.000000 0.000000 0.000000 0.000000 0.000000 NONE 0 0 0 0 1 0 0 0 0 0 0 0 0
