@<TRIPOS>MOLECULE
MOL005814
   47    49     1     1     0
SMALL
GASTEIGER


@<TRIPOS>ATOM
      1 C          -0.678580    0.578289    0.002650 C.ar      1 <1>         0.128913 
      2 C          -0.224431    1.983177    0.036372 C.ar      1 <1>         0.087285 
      3 C          -2.099719    0.317121   -0.020970 C.ar      1 <1>         0.139626 
      4 O           0.276015   -0.461560   -0.005571 O.3       1 <1>        -0.305123 
      5 C          -1.111603    3.068777    0.046291 C.ar      1 <1>         0.121670 
      6 C           1.268147    2.183005    0.059782 C.2       1 <1>         0.193688 
      7 C          -3.061280    1.460412   -0.010806 C.ar      1 <1>         0.140849 
      8 O          -2.617903   -0.985877   -0.053519 O.3       1 <1>        -0.342861 
      9 C           1.614765   -0.257937    0.015895 C.2       1 <1>         0.093974 
     10 C          -2.578454    2.815786    0.022240 C.ar      1 <1>         0.139096 
     11 O          -0.571328    4.364012    0.078904 O.3       1 <1>        -0.344468 
     12 C           2.112767    0.988070    0.047142 C.2       1 <1>         0.016922 
     13 O           1.785637    3.287814    0.088393 O.2       1 <1>        -0.287014 
     14 O          -4.450114    1.240705   -0.033116 O.3       1 <1>        -0.342828 
     15 C          -1.828213   -2.175462   -0.066347 C.3       1 <1>         0.043244 
     16 C           2.527249   -1.478075    0.003529 C.ar      1 <1>         0.005752 
     17 O          -3.454717    3.916115    0.032606 O.3       1 <1>        -0.342873 
     18 C          -1.360163    5.563238    0.092248 C.3       1 <1>         0.043165 
     19 C          -5.085027   -0.046817   -0.066390 C.3       1 <1>         0.043244 
     20 C           1.917072   -2.831931   -0.030395 C.ar      1 <1>        -0.049674 
     21 C           3.960868   -1.428521    0.022310 C.ar      1 <1>        -0.049674 
     22 C          -4.888526    3.836604    0.012359 C.3       1 <1>         0.043244 
     23 C           2.693953   -3.999120   -0.043468 C.ar      1 <1>        -0.031056 
     24 C           4.783648   -2.663203    0.008582 C.ar      1 <1>        -0.031056 
     25 C           4.170353   -3.930923   -0.023737 C.ar      1 <1>         0.075851 
     26 O           4.901036   -5.126766   -0.037893 O.3       1 <1>        -0.347912 
     27 C           6.337552   -5.141025   -0.019899 C.3       1 <1>         0.043026 
     28 H           3.168924    1.233055    0.065855 H         1 <1>         0.068219 
     29 H          -2.512890   -3.035682   -0.092188 H         1 <1>         0.052872 
     30 H          -1.203466   -2.202306   -0.971296 H         1 <1>         0.052872 
     31 H          -1.227543   -2.237923    0.853031 H         1 <1>         0.052872 
     32 H          -0.663034    6.413344    0.118066 H         1 <1>         0.052871 
     33 H          -1.994399    5.613199    0.990320 H         1 <1>         0.052871 
     34 H          -1.970840    5.648835   -0.819362 H         1 <1>         0.052871 
     35 H          -6.171173    0.124887   -0.076917 H         1 <1>         0.052872 
     36 H          -4.842469   -0.635912    0.831143 H         1 <1>         0.052872 
     37 H          -4.819343   -0.600524   -0.979762 H         1 <1>         0.052872 
     38 H           0.845581   -2.940847   -0.045815 H         1 <1>         0.062503 
     39 H           4.505806   -0.496265    0.047149 H         1 <1>         0.062503 
     40 H          -5.272618    4.866902    0.027690 H         1 <1>         0.052872 
     41 H          -5.249594    3.352145   -0.907636 H         1 <1>         0.052872 
     42 H          -5.273178    3.316417    0.902813 H         1 <1>         0.052872 
     43 H           2.214887   -4.972262   -0.068400 H         1 <1>         0.064346 
     44 H           5.861459   -2.559858    0.024060 H         1 <1>         0.064346 
     45 H           6.661945   -6.191890   -0.036284 H         1 <1>         0.052869 
     46 H           6.749052   -4.637567   -0.908148 H         1 <1>         0.052869 
     47 H           6.726063   -4.672803    0.897498 H         1 <1>         0.052869 
@<TRIPOS>BOND
     1    1    2 1    
     2    1    3 2    
     3    1    4 1    
     4    2    5 2    
     5    2    6 1    
     6    3    7 1    
     7    3    8 1    
     8    4    9 1    
     9    5   10 1    
    10    5   11 1    
    11    6   12 1    
    12    6   13 2    
    13    7   10 2    
    14    7   14 1    
    15    8   15 1    
    16    9   12 2    
    17    9   16 1    
    18   10   17 1    
    19   11   18 1    
    20   12   28 1    
    21   14   19 1    
    22   15   29 1    
    23   15   30 1    
    24   15   31 1    
    25   16   20 1    
    26   16   21 2    
    27   17   22 1    
    28   18   32 1    
    29   18   33 1    
    30   18   34 1    
    31   19   35 1    
    32   19   36 1    
    33   19   37 1    
    34   20   23 2    
    35   20   38 1    
    36   21   24 1    
    37   21   39 1    
    38   22   40 1    
    39   22   41 1    
    40   22   42 1    
    41   23   25 1    
    42   23   43 1    
    43   24   25 2    
    44   24   44 1    
    45   25   26 1    
    46   26   27 1    
    47   27   45 1    
    48   27   46 1    
    49   27   47 1    
@<TRIPOS>SUBSTRUCTURE
     1 ****        1 TEMP              0 ****  ****    0 ROOT 
@<TRIPOS>NORMAL
@<TRIPOS>FF_PBC
FORCE_FIELD_SETUP_FEATURE Force Field Setup information
v1.0  0 0.000000 0.000000 0.000000 0.000000 0.000000 0.000000 NONE 0 0 0 0 1 0 0 0 0 0 0 0 0
