@<TRIPOS>MOLECULE
MOL002293
   59    64     1     1     0
SMALL
GASTEIGER


@<TRIPOS>ATOM
      1 O           1.804798   -4.504688   -2.751851 O.3       1 <1>        -0.359114 
      2 O          -4.669731    2.018649   -2.475203 O.3       1 <1>        -0.359114 
      3 O           2.041777   -3.755954   -0.231273 O.2       1 <1>        -0.286459 
      4 O          -2.805277    3.115046   -0.843193 O.2       1 <1>        -0.286459 
      5 O           3.875566   -2.723178    1.355587 O.3       1 <1>        -0.359104 
      6 O          -2.498277    3.980893    1.693354 O.3       1 <1>        -0.359093 
      7 O           3.496522    1.777033    3.846049 O.3       1 <1>        -0.390415 
      8 O           0.783772    1.906103    5.419715 O.3       1 <1>        -0.327489 
      9 O           0.474360   -0.191226    4.914712 O.2       1 <1>        -0.259428 
     10 C           0.330922   -0.074123   -0.964729 C.3       1 <1>         0.021577 
     11 C          -0.958257   -0.388623   -0.152868 C.3       1 <1>         0.021588 
     12 C           0.437493   -1.067274   -2.129813 C.ar      1 <1>        -0.025769 
     13 C          -2.161642   -0.365271   -1.106723 C.ar      1 <1>        -0.025769 
     14 C           1.531337   -0.134321   -0.009165 C.ar      1 <1>        -0.025441 
     15 C          -1.068621    0.628996    0.992635 C.ar      1 <1>        -0.025032 
     16 C           1.134508   -2.362903   -1.937494 C.ar      1 <1>         0.055780 
     17 C          -2.863372    0.774676   -1.293256 C.ar      1 <1>         0.055780 
     18 C           2.231815   -1.422921    0.215173 C.ar      1 <1>         0.055799 
     19 C          -1.758761    1.771386    0.822113 C.ar      1 <1>         0.055821 
     20 C           1.819143   -2.618733   -0.613524 C.2       1 <1>         0.198626 
     21 C          -2.497593    1.992489   -0.477521 C.2       1 <1>         0.198627 
     22 C           1.158437   -3.281342   -2.942142 C.ar      1 <1>         0.083665 
     23 C          -3.975575    0.821184   -2.277123 C.ar      1 <1>         0.083665 
     24 C           1.936548    0.981693    0.652768 C.ar      1 <1>        -0.051767 
     25 C          -0.124906   -0.777503   -3.333250 C.ar      1 <1>        -0.057128 
     26 C          -2.546234   -1.595941   -1.843290 C.ar      1 <1>        -0.057128 
     27 C          -0.392631    0.361676    2.287723 C.ar      1 <1>        -0.044250 
     28 C           3.227270   -1.505811    1.137303 C.ar      1 <1>         0.083995 
     29 C          -1.798533    2.788763    1.902423 C.ar      1 <1>         0.084406 
     30 C           3.018332    0.905042    1.663282 C.ar      1 <1>        -0.019442 
     31 C           0.509847   -2.966206   -4.241558 C.ar      1 <1>        -0.031220 
     32 C          -4.301508   -0.307321   -2.969652 C.ar      1 <1>        -0.031220 
     33 C          -0.088593   -1.769424   -4.431561 C.ar      1 <1>        -0.059013 
     34 C          -3.556913   -1.566153   -2.731187 C.ar      1 <1>        -0.059013 
     35 C          -0.414484    1.277545    3.292051 C.ar      1 <1>         0.049022 
     36 C           3.629031   -0.293538    1.895945 C.ar      1 <1>        -0.025865 
     37 C          -1.157358    2.547422    3.080747 C.ar      1 <1>        -0.018357 
     38 C           3.439330    2.145936    2.457554 C.3       1 <1>         0.069320 
     39 C           0.307376    0.972990    4.591480 C.2       1 <1>         0.291326 
     40 H           1.756297   -5.089812   -3.498402 H         1 <1>         0.217340 
     41 H          -5.329189    1.998963   -3.159624 H         1 <1>         0.217340 
     42 H           4.493260   -2.709465    2.077310 H         1 <1>         0.217340 
     43 H          -2.672989    4.495994    2.473159 H         1 <1>         0.217340 
     44 H           3.768572    2.488997    4.417069 H         1 <1>         0.209847 
     45 H           0.723599    2.789643    5.083742 H         1 <1>         0.220555 
     46 H           0.259569    0.944147   -1.380247 H         1 <1>         0.040672 
     47 H          -0.885636   -1.398133    0.281835 H         1 <1>         0.040672 
     48 H           1.455102    1.935552    0.463963 H         1 <1>         0.062412 
     49 H          -0.622324    0.173047   -3.500076 H         1 <1>         0.062069 
     50 H          -2.009333   -2.523901   -1.668983 H         1 <1>         0.062069 
     51 H           0.133609   -0.577486    2.428099 H         1 <1>         0.062839 
     52 H           0.519383   -3.694446   -5.046056 H         1 <1>         0.064340 
     53 H          -5.106308   -0.300839   -3.697767 H         1 <1>         0.064340 
     54 H          -0.551584   -1.531710   -5.384473 H         1 <1>         0.061846 
     55 H          -3.832958   -2.463954   -3.275362 H         1 <1>         0.061846 
     56 H           4.415361   -0.356958    2.640267 H         1 <1>         0.064686 
     57 H          -1.198955    3.285769    3.872702 H         1 <1>         0.065115 
     58 H           4.424629    2.478274    2.091002 H         1 <1>         0.060711 
     59 H           2.710080    2.961045    2.317702 H         1 <1>         0.060711 
@<TRIPOS>BOND
     1   22    1 1    
     2    1   40 1    
     3   23    2 1    
     4    2   41 1    
     5   20    3 2    
     6   21    4 2    
     7   28    5 1    
     8    5   42 1    
     9   29    6 1    
    10    6   43 1    
    11   38    7 1    
    12    7   44 1    
    13   39    8 1    
    14    8   45 1    
    15   39    9 2    
    16   11   10 1    
    17   10   12 1    
    18   10   14 1    
    19   10   46 1    
    20   11   13 1    
    21   15   11 1    
    22   11   47 1    
    23   12   16 1    
    24   12   25 2    
    25   13   17 2    
    26   13   26 1    
    27   14   18 1    
    28   14   24 2    
    29   15   19 2    
    30   27   15 1    
    31   16   20 1    
    32   16   22 2    
    33   21   17 1    
    34   17   23 1    
    35   18   20 1    
    36   18   28 2    
    37   19   21 1    
    38   29   19 1    
    39   22   31 1    
    40   23   32 2    
    41   24   30 1    
    42   24   48 1    
    43   25   33 1    
    44   25   49 1    
    45   26   34 2    
    46   26   50 1    
    47   35   27 2    
    48   27   51 1    
    49   28   36 1    
    50   37   29 2    
    51   30   36 2    
    52   30   38 1    
    53   33   31 2    
    54   31   52 1    
    55   34   32 1    
    56   32   53 1    
    57   33   54 1    
    58   34   55 1    
    59   35   37 1    
    60   35   39 1    
    61   36   56 1    
    62   37   57 1    
    63   38   58 1    
    64   38   59 1    
@<TRIPOS>SUBSTRUCTURE
     1 ****       10 TEMP              0 ****  ****    0 ROOT 
@<TRIPOS>NORMAL
@<TRIPOS>FF_PBC
FORCE_FIELD_SETUP_FEATURE Force Field Setup information
v1.0  0 0.000000 0.000000 0.000000 0.000000 0.000000 0.000000 NONE 0 0 0 0 1 0 0 0 0 0 0 0 0
