@<TRIPOS>MOLECULE
MOL004675
   51    54     1     1     0
SMALL
GASTEIGER


@<TRIPOS>ATOM
      1 C           3.256104   -1.708101   -0.222704 C.2       1 <1>         0.123622 
      2 C           3.128547   -2.883353    0.418105 C.2       1 <1>         0.151805 
      3 C           1.797899   -3.479321    0.650431 C.2       1 <1>         0.223066 
      4 C           0.586978   -2.720373    0.175460 C.ar      1 <1>         0.084553 
      5 C           0.875051   -1.438234   -0.495948 C.ar      1 <1>         0.099010 
      6 O           2.192153   -1.007060   -0.657442 O.3       1 <1>        -0.305131 
      7 C          -0.176149   -0.651969   -0.975364 C.ar      1 <1>        -0.000159 
      8 C          -1.578033   -1.099136   -0.799573 C.ar      1 <1>         0.084401 
      9 C          -1.855456   -2.321975   -0.167883 C.ar      1 <1>        -0.000932 
     10 C          -0.746735   -3.169076    0.340402 C.ar      1 <1>         0.088410 
     11 O           1.708948   -4.557544    1.215744 O.2       1 <1>        -0.284270 
     12 O          -2.629148   -0.307785   -1.256496 O.3       1 <1>        -0.312387 
     13 O          -3.994994    1.503922   -1.148357 O.3       1 <1>        -0.342717 
     14 C          -2.854016    0.901189   -0.511432 C.3       1 <1>         0.193532 
     15 C          -3.156125    0.596324    0.981242 C.3       1 <1>         0.134506 
     16 C          -3.641238    1.883279    1.698320 C.3       1 <1>         0.113985 
     17 C          -4.820859    2.523427    0.922924 C.3       1 <1>         0.109478 
     18 C          -4.403078    2.752683   -0.556612 C.3       1 <1>         0.087319 
     19 C          -5.571986    3.282736   -1.426259 C.3       1 <1>        -0.036060 
     20 O          -5.149653    3.750238    1.605355 O.3       1 <1>        -0.386579 
     21 O          -4.054951    1.556928    3.039042 O.3       1 <1>        -0.386402 
     22 O          -2.024508    0.011075    1.661712 O.3       1 <1>        -0.384091 
     23 C           4.610828   -1.084450   -0.488200 C.ar      1 <1>         0.008296 
     24 C           4.729786    0.391646   -0.398422 C.ar      1 <1>        -0.049598 
     25 C           5.964163    1.027767   -0.629414 C.ar      1 <1>        -0.031302 
     26 C           7.168277    0.234883   -0.966425 C.ar      1 <1>         0.072619 
     27 C           7.064129   -1.180881   -1.064025 C.ar      1 <1>        -0.031302 
     28 C           5.761961   -1.849957   -0.829904 C.ar      1 <1>        -0.049598 
     29 O           8.381017    0.894669   -1.181471 O.3       1 <1>        -0.359832 
     30 O          -1.001184   -4.387196    0.972629 O.3       1 <1>        -0.358954 
     31 O           4.223647   -3.516579    0.864242 O.3       1 <1>        -0.354461 
     32 H           0.038596    0.284383   -1.476977 H         1 <1>         0.066957 
     33 H          -2.886710   -2.635193   -0.052633 H         1 <1>         0.066933 
     34 H          -1.978873    1.565498   -0.600220 H         1 <1>         0.094158 
     35 H          -3.972160   -0.142895    1.007707 H         1 <1>         0.067108 
     36 H          -2.806964    2.605232    1.734610 H         1 <1>         0.064757 
     37 H          -5.670480    1.819752    0.962544 H         1 <1>         0.064584 
     38 H          -3.581141    3.488063   -0.600379 H         1 <1>         0.062075 
     39 H          -5.248839    3.337102   -2.477643 H         1 <1>         0.025536 
     40 H          -5.888267    4.289039   -1.114331 H         1 <1>         0.025536 
     41 H          -6.432704    2.599610   -1.363156 H         1 <1>         0.025536 
     42 H          -5.930244    4.179483    1.271221 H         1 <1>         0.210002 
     43 H          -4.373819    2.322562    3.509092 H         1 <1>         0.210005 
     44 H          -1.272469    0.591168    1.716204 H         1 <1>         0.210111 
     45 H           3.856912    0.987462   -0.151609 H         1 <1>         0.062504 
     46 H           6.042979    2.107457   -0.561879 H         1 <1>         0.064339 
     47 H           7.932741   -1.782206   -1.309797 H         1 <1>         0.064339 
     48 H           5.703761   -2.927491   -0.931681 H         1 <1>         0.062504 
     49 H           9.106453    0.317905   -1.391998 H         1 <1>         0.217313 
     50 H          -1.925606   -4.578664    1.082056 H         1 <1>         0.217342 
     51 H           4.025559   -4.335895    1.308683 H         1 <1>         0.217537 
@<TRIPOS>BOND
     1    1    2 2    
     2    1    6 1    
     3    1   23 1    
     4    2    3 1    
     5    2   31 1    
     6    3    4 1    
     7    3   11 2    
     8    4    5 1    
     9    4   10 2    
    10    5    6 1    
    11    5    7 2    
    12    7    8 1    
    13    7   32 1    
    14    8    9 2    
    15    8   12 1    
    16    9   10 1    
    17    9   33 1    
    18   10   30 1    
    19   12   14 1    
    20   14   13 1    
    21   13   18 1    
    22   14   15 1    
    23   14   34 1    
    24   15   16 1    
    25   15   22 1    
    26   15   35 1    
    27   16   17 1    
    28   16   21 1    
    29   16   36 1    
    30   17   18 1    
    31   17   20 1    
    32   17   37 1    
    33   18   19 1    
    34   18   38 1    
    35   19   39 1    
    36   19   40 1    
    37   19   41 1    
    38   20   42 1    
    39   21   43 1    
    40   22   44 1    
    41   23   24 1    
    42   23   28 2    
    43   24   25 2    
    44   24   45 1    
    45   25   26 1    
    46   25   46 1    
    47   26   27 2    
    48   26   29 1    
    49   27   28 1    
    50   27   47 1    
    51   28   48 1    
    52   29   49 1    
    53   30   50 1    
    54   31   51 1    
@<TRIPOS>SUBSTRUCTURE
     1 ****        1 TEMP              0 ****  ****    0 ROOT 
@<TRIPOS>NORMAL
@<TRIPOS>FF_PBC
FORCE_FIELD_SETUP_FEATURE Force Field Setup information
v1.0  0 0.000000 0.000000 0.000000 0.000000 0.000000 0.000000 NONE 0 0 0 0 1 0 0 0 0 0 0 0 0
