@<TRIPOS>MOLECULE
MOL004921
   87    87     1     1     0
SMALL
GASTEIGER


@<TRIPOS>ATOM
      1 C          10.646441    6.376729   -1.605709 C.2       1 <1>         0.286600 
      2 C          12.067680    5.998940   -1.737724 C.2       1 <1>         0.010492 
      3 C          12.597069    4.773741   -1.615131 C.2       1 <1>        -0.048856 
      4 O          10.315961    7.534929   -1.803644 O.2       1 <1>        -0.259879 
      5 O           9.747862    5.447140   -1.276740 O.3       1 <1>        -0.311871 
      6 C          11.813039    3.504890   -1.345411 C.ar      1 <1>        -0.022259 
      7 C          12.282266    2.609116   -0.261410 C.ar      1 <1>        -0.022249 
      8 C          11.581194    1.440915    0.050916 C.ar      1 <1>         0.102746 
      9 C          10.345798    1.093638   -0.696546 C.ar      1 <1>         0.102220 
     10 C           9.918537    1.915696   -1.748359 C.ar      1 <1>        -0.028849 
     11 C          10.682513    3.139834   -2.090040 C.ar      1 <1>        -0.051998 
     12 O           9.628521   -0.052542   -0.337458 O.3       1 <1>        -0.357274 
     13 O          12.050419    0.607541    1.067636 O.3       1 <1>        -0.357261 
     14 C           8.372568    5.870596   -1.277692 C.3       1 <1>         0.057373 
     15 C           7.600867    4.540121   -1.129865 C.3       1 <1>        -0.028863 
     16 C           6.063513    4.705054   -1.050317 C.3       1 <1>        -0.050962 
     17 C           5.419114    3.306681   -0.853458 C.3       1 <1>        -0.052986 
     18 C           3.874087    3.387415   -0.810307 C.3       1 <1>        -0.053056 
     19 C           3.270856    1.987653   -0.520483 C.3       1 <1>        -0.053057 
     20 C           1.724858    2.066460   -0.524029 C.3       1 <1>        -0.053057 
     21 C           1.088000    0.695145   -0.181806 C.3       1 <1>        -0.053057 
     22 C          -0.456231    0.820298   -0.218601 C.3       1 <1>        -0.053057 
     23 C          -1.146678   -0.520936    0.134478 C.3       1 <1>        -0.053057 
     24 C          -2.685981   -0.343362    0.083730 C.3       1 <1>        -0.053057 
     25 C          -3.411293   -1.665385    0.435767 C.3       1 <1>        -0.053057 
     26 C          -4.947036   -1.465124    0.380896 C.3       1 <1>        -0.053057 
     27 C          -5.681652   -2.782303    0.732098 C.3       1 <1>        -0.053057 
     28 C          -7.217935   -2.583994    0.677374 C.3       1 <1>        -0.053057 
     29 C          -7.947767   -3.905588    1.029039 C.3       1 <1>        -0.053057 
     30 C          -9.487162   -3.724314    0.978229 C.3       1 <1>        -0.053057 
     31 C         -10.204326   -5.053983    1.331696 C.3       1 <1>        -0.053057 
     32 C         -11.746053   -4.886246    1.284367 C.3       1 <1>        -0.053065 
     33 C         -12.460925   -6.217873    1.638358 C.3       1 <1>        -0.053306 
     34 C         -14.003343   -6.053335    1.591916 C.3       1 <1>        -0.055911 
     35 C         -14.716736   -7.382607    1.945309 C.3       1 <1>        -0.065276 
     36 H          12.744368    6.827773   -1.948828 H         1 <1>         0.067735 
     37 H          13.678575    4.656624   -1.700550 H         1 <1>         0.062526 
     38 H          13.180577    2.852537    0.296724 H         1 <1>         0.064993 
     39 H           9.026638    1.662148   -2.312512 H         1 <1>         0.064421 
     40 H          10.358469    3.752897   -2.925531 H         1 <1>         0.062425 
     41 H           8.694166    0.026376   -0.501175 H         1 <1>         0.217422 
     42 H          11.524978   -0.184864    1.131255 H         1 <1>         0.217422 
     43 H           8.082090    6.355181   -2.225771 H         1 <1>         0.056589 
     44 H           8.167261    6.552277   -0.437194 H         1 <1>         0.056589 
     45 H           7.969385    4.023335   -0.228387 H         1 <1>         0.028748 
     46 H           7.836575    3.916755   -2.007440 H         1 <1>         0.028748 
     47 H           5.689278    5.168914   -1.977785 H         1 <1>         0.026599 
     48 H           5.803596    5.357495   -0.201114 H         1 <1>         0.026599 
     49 H           5.781509    2.865807    0.090321 H         1 <1>         0.026529 
     50 H           5.716922    2.639791   -1.679418 H         1 <1>         0.026529 
     51 H           3.497860    3.762062   -1.776893 H         1 <1>         0.026528 
     52 H           3.561952    4.090518   -0.021203 H         1 <1>         0.026528 
     53 H           3.619452    1.632796    0.463636 H         1 <1>         0.026528 
     54 H           3.604121    1.267728   -1.286642 H         1 <1>         0.026528 
     55 H           1.383057    2.391401   -1.520606 H         1 <1>         0.026528 
     56 H           1.396563    2.814298    0.216887 H         1 <1>         0.026528 
     57 H           1.410368    0.375081    0.823076 H         1 <1>         0.026528 
     58 H           1.416998   -0.063400   -0.911288 H         1 <1>         0.026528 
     59 H          -0.770663    1.136074   -1.227507 H         1 <1>         0.026528 
     60 H          -0.775450    1.592041    0.501706 H         1 <1>         0.026528 
     61 H          -0.842215   -0.839840    1.145263 H         1 <1>         0.026528 
     62 H          -0.837154   -1.298203   -0.583916 H         1 <1>         0.026528 
     63 H          -2.984138   -0.021537   -0.928070 H         1 <1>         0.026528 
     64 H          -2.988087    0.439767    0.799048 H         1 <1>         0.026528 
     65 H          -3.115213   -1.988064    1.447564 H         1 <1>         0.026528 
     66 H          -3.113086   -2.449020   -0.280105 H         1 <1>         0.026528 
     67 H          -5.239215   -1.139943   -0.631017 H         1 <1>         0.026528 
     68 H          -5.240975   -0.678951    1.095486 H         1 <1>         0.026528 
     69 H          -5.387560   -3.105991    1.743845 H         1 <1>         0.026528 
     70 H          -5.385571   -3.567317    0.017283 H         1 <1>         0.026528 
     71 H          -7.511240   -2.259345   -0.334572 H         1 <1>         0.026528 
     72 H          -7.513345   -1.798546    1.392411 H         1 <1>         0.026528 
     73 H          -7.650483   -4.227991    2.040750 H         1 <1>         0.026528 
     74 H          -7.647873   -4.689025    0.313379 H         1 <1>         0.026528 
     75 H          -9.785575   -3.402246   -0.033394 H         1 <1>         0.026528 
     76 H          -9.788328   -2.941437    1.694161 H         1 <1>         0.026528 
     77 H          -9.902040   -5.374162    2.342705 H         1 <1>         0.026528 
     78 H          -9.899184   -5.834892    0.615389 H         1 <1>         0.026528 
     79 H         -12.047264   -4.565702    0.273146 H         1 <1>         0.026528 
     80 H         -12.050150   -4.104910    2.000660 H         1 <1>         0.026528 
     81 H         -12.156869   -6.537788    2.648975 H         1 <1>         0.026520 
     82 H         -12.154012   -6.998347    0.922250 H         1 <1>         0.026520 
     83 H         -14.309273   -5.734316    0.581797 H         1 <1>         0.026265 
     84 H         -14.312124   -5.273869    2.308013 H         1 <1>         0.026265 
     85 H         -15.808312   -7.247124    1.907375 H         1 <1>         0.022978 
     86 H         -14.438775   -7.709205    2.958584 H         1 <1>         0.022978 
     87 H         -14.435930   -8.170239    1.230165 H         1 <1>         0.022978 
@<TRIPOS>BOND
     1    1    2 1    
     2    1    4 2    
     3    1    5 1    
     4    2    3 2    
     5    2   36 1    
     6    3    6 1    
     7    3   37 1    
     8    5   14 1    
     9    6    7 1    
    10    6   11 2    
    11    7    8 2    
    12    7   38 1    
    13    8    9 1    
    14    8   13 1    
    15    9   10 2    
    16    9   12 1    
    17   10   11 1    
    18   10   39 1    
    19   11   40 1    
    20   12   41 1    
    21   13   42 1    
    22   14   15 1    
    23   14   43 1    
    24   14   44 1    
    25   15   16 1    
    26   15   45 1    
    27   15   46 1    
    28   16   17 1    
    29   16   47 1    
    30   16   48 1    
    31   17   18 1    
    32   17   49 1    
    33   17   50 1    
    34   18   19 1    
    35   18   51 1    
    36   18   52 1    
    37   19   20 1    
    38   19   53 1    
    39   19   54 1    
    40   20   21 1    
    41   20   55 1    
    42   20   56 1    
    43   21   22 1    
    44   21   57 1    
    45   21   58 1    
    46   22   23 1    
    47   22   59 1    
    48   22   60 1    
    49   23   24 1    
    50   23   61 1    
    51   23   62 1    
    52   24   25 1    
    53   24   63 1    
    54   24   64 1    
    55   25   26 1    
    56   25   65 1    
    57   25   66 1    
    58   26   27 1    
    59   26   67 1    
    60   26   68 1    
    61   27   28 1    
    62   27   69 1    
    63   27   70 1    
    64   28   29 1    
    65   28   71 1    
    66   28   72 1    
    67   29   30 1    
    68   29   73 1    
    69   29   74 1    
    70   30   31 1    
    71   30   75 1    
    72   30   76 1    
    73   31   32 1    
    74   31   77 1    
    75   31   78 1    
    76   32   33 1    
    77   32   79 1    
    78   32   80 1    
    79   33   34 1    
    80   33   81 1    
    81   33   82 1    
    82   34   35 1    
    83   34   83 1    
    84   34   84 1    
    85   35   85 1    
    86   35   86 1    
    87   35   87 1    
@<TRIPOS>SUBSTRUCTURE
     1 ****        1 TEMP              0 ****  ****    0 ROOT 
@<TRIPOS>NORMAL
@<TRIPOS>FF_PBC
FORCE_FIELD_SETUP_FEATURE Force Field Setup information
v1.0  0 0.000000 0.000000 0.000000 0.000000 0.000000 0.000000 NONE 0 0 0 0 1 0 0 0 0 0 0 0 0
