@<TRIPOS>MOLECULE
MOL012974
   37    40     1     1     0
SMALL
GASTEIGER


@<TRIPOS>ATOM
      1 O           0.494979   -3.034659    0.163877 O.3       1 <1>        -0.344730 
      2 O          -2.244131   -3.607668    0.212466 O.3       1 <1>        -0.357249 
      3 N          -1.560428    2.857244   -0.194687 N.3       1 <1>        -0.308687 
      4 C          -0.472620    1.934965    0.197186 C.3       1 <1>         0.037795 
      5 C          -0.939270    0.476850    0.222350 C.ar      1 <1>        -0.016629 
      6 C           0.742665    2.063213   -0.755346 C.3       1 <1>        -0.007488 
      7 C          -2.387766    0.155450    0.211690 C.ar      1 <1>        -0.038319 
      8 C           0.040429   -0.570226    0.253858 C.ar      1 <1>         0.019809 
      9 C          -3.432890    1.274781    0.183216 C.3       1 <1>        -0.014675 
     10 C          -2.802510    2.634375    0.574748 C.3       1 <1>         0.000439 
     11 C           1.854218    1.143631   -0.243809 C.ar      1 <1>        -0.037778 
     12 C           1.475193   -0.180244    0.309094 C.ar      1 <1>        -0.011781 
     13 C          -0.420458   -1.982915    0.218214 C.ar      1 <1>         0.113406 
     14 C          -2.799881   -1.188569    0.225386 C.ar      1 <1>        -0.025831 
     15 C          -1.803032   -2.282443    0.222958 C.ar      1 <1>         0.103320 
     16 C           3.211671    1.543713   -0.274103 C.ar      1 <1>        -0.057935 
     17 C           2.490682   -1.005798    0.873519 C.ar      1 <1>        -0.053678 
     18 C           4.260251    0.653372    0.275721 C.ar      1 <1>        -0.061465 
     19 C           3.908596   -0.575298    0.840375 C.ar      1 <1>        -0.061166 
     20 C           1.034592   -3.261341   -1.148790 C.3       1 <1>         0.043161 
     21 H          -0.147697    2.199672    1.217387 H         1 <1>         0.051341 
     22 H           1.073634    3.113512   -0.777580 H         1 <1>         0.033173 
     23 H           0.471818    1.752526   -1.776103 H         1 <1>         0.033173 
     24 H          -3.825754    1.329306   -0.844298 H         1 <1>         0.032559 
     25 H          -4.266010    1.039688    0.865124 H         1 <1>         0.032559 
     26 H          -1.758471    2.790033   -1.257775 H         1 <1>         0.122527 
     27 H          -3.513758    3.452204    0.372084 H         1 <1>         0.042733 
     28 H          -2.577209    2.645583    1.654110 H         1 <1>         0.042733 
     29 H          -3.854958   -1.438727    0.229264 H         1 <1>         0.064686 
     30 H           3.491854    2.505468   -0.690371 H         1 <1>         0.062048 
     31 H           2.249135   -1.956064    1.332766 H         1 <1>         0.062371 
     32 H           5.300739    0.960707    0.243213 H         1 <1>         0.061767 
     33 H           4.676097   -1.222111    1.253657 H         1 <1>         0.061776 
     34 H          -1.518200   -4.220634    0.278065 H         1 <1>         0.217422 
     35 H           1.574166   -2.376264   -1.520091 H         1 <1>         0.052871 
     36 H           0.232849   -3.520524   -1.857876 H         1 <1>         0.052871 
     37 H           1.739675   -4.103405   -1.090097 H         1 <1>         0.052871 
@<TRIPOS>BOND
     1   13    1 1    
     2    1   20 1    
     3   15    2 1    
     4    2   34 1    
     5    4    3 1    
     6    3   10 1    
     7    3   26 1    
     8    5    4 1    
     9    4    6 1    
    10    4   21 1    
    11    5    7 1    
    12    8    5 2    
    13   11    6 1    
    14    6   22 1    
    15    6   23 1    
    16    7    9 1    
    17    7   14 2    
    18    8   12 1    
    19   13    8 1    
    20    9   10 1    
    21    9   24 1    
    22    9   25 1    
    23   10   27 1    
    24   10   28 1    
    25   12   11 1    
    26   11   16 2    
    27   12   17 2    
    28   13   15 2    
    29   14   15 1    
    30   14   29 1    
    31   16   18 1    
    32   16   30 1    
    33   17   19 1    
    34   17   31 1    
    35   18   19 2    
    36   18   32 1    
    37   19   33 1    
    38   20   35 1    
    39   20   36 1    
    40   20   37 1    
@<TRIPOS>SUBSTRUCTURE
     1 ****        3 TEMP              0 ****  ****    0 ROOT 
@<TRIPOS>NORMAL
@<TRIPOS>FF_PBC
FORCE_FIELD_SETUP_FEATURE Force Field Setup information
v1.0  0 0.000000 0.000000 0.000000 0.000000 0.000000 0.000000 NONE 0 0 0 0 1 0 0 0 0 0 0 0 0
