@<TRIPOS>MOLECULE
MOL002127
   32    33     1     1     0
SMALL
GASTEIGER


@<TRIPOS>ATOM
      1 O          -1.354110    0.680272   -2.433543 O.3       1 <1>        -0.311121 
      2 O          -3.545328    0.207156   -2.437595 O.2       1 <1>        -0.264300 
      3 C          -0.520685   -1.283417   -1.487954 C.3       1 <1>         0.001452 
      4 C          -2.053918   -1.306618   -1.322768 C.3       1 <1>         0.068010 
      5 C          -0.197104    0.223196   -1.712429 C.3       1 <1>         0.071905 
      6 C          -2.406244   -0.072339   -2.102970 C.2       1 <1>         0.269666 
      7 C           0.183267   -2.108683   -0.375805 C.3       1 <1>        -0.043393 
      8 C          -2.543178   -1.236746    0.100059 C.2       1 <1>        -0.075088 
      9 C          -0.052623    1.147735   -0.470157 C.3       1 <1>        -0.025723 
     10 C          -0.292774   -1.791397    1.069388 C.3       1 <1>        -0.034379 
     11 C          -1.760605   -1.459627    1.162881 C.2       1 <1>        -0.087174 
     12 C           1.412482    1.239123    0.047296 C.3       1 <1>        -0.050939 
     13 C           1.495293    2.070390    1.356639 C.3       1 <1>        -0.055831 
     14 C           2.956782    2.179144    1.864380 C.3       1 <1>        -0.065275 
     15 H          -0.284995   -1.764811   -2.456424 H         1 <1>         0.033651 
     16 H          -2.498144   -2.197934   -1.794999 H         1 <1>         0.044831 
     17 H           0.685559    0.368852   -2.358243 H         1 <1>         0.060500 
     18 H           1.278311   -2.030546   -0.463141 H         1 <1>         0.027197 
     19 H          -0.085941   -3.162226   -0.567816 H         1 <1>         0.027197 
     20 H          -3.596909   -0.998004    0.255913 H         1 <1>         0.057676 
     21 H          -0.760689    0.857671    0.316162 H         1 <1>         0.029036 
     22 H          -0.331544    2.169480   -0.778690 H         1 <1>         0.029036 
     23 H           0.264165   -0.950418    1.502377 H         1 <1>         0.030742 
     24 H          -0.087921   -2.664040    1.712126 H         1 <1>         0.030742 
     25 H          -2.199684   -1.390523    2.160372 H         1 <1>         0.056916 
     26 H           1.832453    0.239613    0.223673 H         1 <1>         0.026600 
     27 H           2.037329    1.723581   -0.721790 H         1 <1>         0.026600 
     28 H           1.099514    3.083971    1.176794 H         1 <1>         0.026266 
     29 H           0.879226    1.594106    2.137397 H         1 <1>         0.026266 
     30 H           2.992825    2.771618    2.792322 H         1 <1>         0.022978 
     31 H           3.366924    1.178466    2.072003 H         1 <1>         0.022978 
     32 H           3.590232    2.671626    1.110138 H         1 <1>         0.022978 
@<TRIPOS>BOND
     1    5    1 1    
     2    1    6 1    
     3    6    2 2    
     4    3    4 1    
     5    3    5 1    
     6    3    7 1    
     7    3   15 1    
     8    4    6 1    
     9    4    8 1    
    10    4   16 1    
    11    5    9 1    
    12    5   17 1    
    13    7   10 1    
    14    7   18 1    
    15    7   19 1    
    16    8   11 2    
    17    8   20 1    
    18    9   12 1    
    19    9   21 1    
    20    9   22 1    
    21   10   11 1    
    22   10   23 1    
    23   10   24 1    
    24   11   25 1    
    25   12   13 1    
    26   12   26 1    
    27   12   27 1    
    28   13   14 1    
    29   13   28 1    
    30   13   29 1    
    31   14   30 1    
    32   14   31 1    
    33   14   32 1    
@<TRIPOS>SUBSTRUCTURE
     1 ****        3 TEMP              0 ****  ****    0 ROOT 
@<TRIPOS>NORMAL
@<TRIPOS>FF_PBC
FORCE_FIELD_SETUP_FEATURE Force Field Setup information
v1.0  0 0.000000 0.000000 0.000000 0.000000 0.000000 0.000000 NONE 0 0 0 0 1 0 0 0 0 0 0 0 0
