@<TRIPOS>MOLECULE
MOL001896
   27    28     1     1     0
SMALL
GASTEIGER


@<TRIPOS>ATOM
      1 O          -2.800753   -1.272275    0.096731 O.3       1 <1>        -0.390727 
      2 C           0.947682   -0.589755    0.167482 C.3       1 <1>        -0.025183 
      3 C           1.422643    0.860357   -0.142474 C.3       1 <1>        -0.031349 
      4 C          -0.176295   -0.303101   -0.865396 C.3       1 <1>        -0.012076 
      5 C           0.756234    0.737368   -1.539799 C.3       1 <1>        -0.042311 
      6 C           0.587467    1.909722    0.649583 C.3       1 <1>        -0.031064 
      7 C          -1.263043    0.519412   -0.205374 C.2       1 <1>        -0.044790 
      8 C           0.511562   -0.935722    1.624955 C.3       1 <1>        -0.059006 
      9 C           1.958494   -1.673524   -0.320486 C.3       1 <1>        -0.059006 
     10 C          -0.889782    1.591642    0.511855 C.2       1 <1>        -0.082053 
     11 C          -2.688417    0.071471   -0.404340 C.3       1 <1>         0.065574 
     12 H           2.511070    1.032979   -0.132721 H         1 <1>         0.030925 
     13 H          -0.509457   -1.146974   -1.490322 H         1 <1>         0.035170 
     14 H           1.412783    0.309997   -2.312619 H         1 <1>         0.027407 
     15 H           0.270774    1.643287   -1.939901 H         1 <1>         0.027407 
     16 H           0.782276    2.914728    0.243410 H         1 <1>         0.031026 
     17 H           0.885643    1.903562    1.709300 H         1 <1>         0.031026 
     18 H           1.395773   -0.911422    2.279317 H         1 <1>         0.023525 
     19 H          -0.244311   -0.274454    2.065838 H         1 <1>         0.023525 
     20 H           0.092789   -1.953178    1.640704 H         1 <1>         0.023525 
     21 H           2.822346   -1.698446    0.360892 H         1 <1>         0.023525 
     22 H           1.473396   -2.661247   -0.303317 H         1 <1>         0.023525 
     23 H           2.344750   -1.513256   -1.335411 H         1 <1>         0.023525 
     24 H          -1.622455    2.231759    1.003493 H         1 <1>         0.057251 
     25 H          -2.918101    0.107895   -1.482081 H         1 <1>         0.060397 
     26 H          -3.388339    0.737121    0.127724 H         1 <1>         0.060397 
     27 H          -3.674029   -1.638045   -0.006642 H         1 <1>         0.209834 
@<TRIPOS>BOND
     1   11    1 1    
     2    1   27 1    
     3    2    3 1    
     4    4    2 1    
     5    2    8 1    
     6    2    9 1    
     7    5    3 1    
     8    6    3 1    
     9    3   12 1    
    10    4    5 1    
    11    7    4 1    
    12    4   13 1    
    13    5   14 1    
    14    5   15 1    
    15   10    6 1    
    16    6   16 1    
    17    6   17 1    
    18    7   10 2    
    19    7   11 1    
    20    8   18 1    
    21    8   19 1    
    22    8   20 1    
    23    9   21 1    
    24    9   22 1    
    25    9   23 1    
    26   10   24 1    
    27   11   25 1    
    28   11   26 1    
@<TRIPOS>SUBSTRUCTURE
     1 ****        2 TEMP              0 ****  ****    0 ROOT 
@<TRIPOS>NORMAL
@<TRIPOS>FF_PBC
FORCE_FIELD_SETUP_FEATURE Force Field Setup information
v1.0  0 0.000000 0.000000 0.000000 0.000000 0.000000 0.000000 NONE 0 0 0 0 1 0 0 0 0 0 0 0 0
