@<TRIPOS>MOLECULE
MOL002924
   45    46     1     1     0
SMALL
GASTEIGER


@<TRIPOS>ATOM
      1 O          -3.400077    0.981488   -0.418836 O.3       1 <1>        -0.385757 
      2 O          -0.491900   -0.343556   -1.895006 O.3       1 <1>        -0.339962 
      3 O          -1.182123    2.307978    0.622666 O.3       1 <1>        -0.376404 
      4 O           0.660520    1.655195   -1.453818 O.3       1 <1>        -0.348421 
      5 O          -1.372777   -1.966823    0.520898 O.3       1 <1>        -0.386466 
      6 O          -3.836566   -1.682546   -2.816075 O.3       1 <1>        -0.392366 
      7 O           0.469086    0.001014    4.839638 O.3       1 <1>        -0.357262 
      8 O           2.734377   -1.499359    3.944553 O.3       1 <1>        -0.345349 
      9 C          -2.378375    0.214675    0.254208 C.3       1 <1>         0.121044 
     10 C          -1.014733    0.953598    0.156278 C.3       1 <1>         0.169724 
     11 C          -2.242393   -1.209331   -0.346918 C.3       1 <1>         0.112506 
     12 C          -0.610483    0.984638   -1.343100 C.3       1 <1>         0.194999 
     13 C          -1.690684   -1.138944   -1.801699 C.3       1 <1>         0.113049 
     14 C           0.026138    0.295219    1.091077 C.ar      1 <1>        -0.006093 
     15 C          -2.749902   -0.737924   -2.865343 C.3       1 <1>         0.073016 
     16 C          -0.175335    0.434380    2.555445 C.ar      1 <1>        -0.023247 
     17 C           1.161402   -0.431859    0.639439 C.ar      1 <1>        -0.053000 
     18 C           1.149865    1.731451   -2.806900 C.3       1 <1>         0.047960 
     19 C           0.704720   -0.150351    3.472152 C.ar      1 <1>         0.102788 
     20 C           2.097063   -1.053222    1.607392 C.ar      1 <1>        -0.028806 
     21 C           1.879121   -0.920937    2.995311 C.ar      1 <1>         0.105421 
     22 C           2.484469    2.512443   -2.779544 C.3       1 <1>        -0.041466 
     23 C           4.149149   -1.567771    3.699154 C.3       1 <1>         0.043135 
     24 H          -4.273610    0.612090   -0.330423 H         1 <1>         0.210032 
     25 H          -0.374367    2.805791    0.535891 H         1 <1>         0.210946 
     26 H          -1.254619   -2.874207    0.256721 H         1 <1>         0.210004 
     27 H          -4.508814   -1.515820   -3.471076 H         1 <1>         0.209508 
     28 H           1.127857   -0.458589    5.351393 H         1 <1>         0.217422 
     29 H          -2.658899    0.130076    1.317540 H         1 <1>         0.065410 
     30 H          -3.233346   -1.695699   -0.343278 H         1 <1>         0.064695 
     31 H          -1.355753    1.587277   -1.885871 H         1 <1>         0.094423 
     32 H          -1.382038   -2.158852   -2.083025 H         1 <1>         0.064668 
     33 H          -2.265990   -0.768681   -3.856773 H         1 <1>         0.058370 
     34 H          -3.133010    0.280505   -2.710829 H         1 <1>         0.058370 
     35 H          -1.017282    1.000868    2.936865 H         1 <1>         0.064771 
     36 H           1.372276   -0.555258   -0.414752 H         1 <1>         0.062204 
     37 H           0.434574    2.260229   -3.458948 H         1 <1>         0.055792 
     38 H           1.330495    0.723597   -3.216296 H         1 <1>         0.055792 
     39 H           2.940769   -1.611400    1.222626 H         1 <1>         0.064420 
     40 H           2.905448    2.594522   -3.794256 H         1 <1>         0.025173 
     41 H           3.208366    1.991658   -2.133225 H         1 <1>         0.025173 
     42 H           2.316876    3.524503   -2.378588 H         1 <1>         0.025173 
     43 H           4.630126   -1.908208    4.628190 H         1 <1>         0.052871 
     44 H           4.399256   -2.287739    2.906868 H         1 <1>         0.052871 
     45 H           4.547289   -0.574690    3.440158 H         1 <1>         0.052871 
@<TRIPOS>BOND
     1    9    1 1    
     2    1   24 1    
     3   12    2 1    
     4    2   13 1    
     5   10    3 1    
     6    3   25 1    
     7   12    4 1    
     8    4   18 1    
     9   11    5 1    
    10    5   26 1    
    11   15    6 1    
    12    6   27 1    
    13   19    7 1    
    14    7   28 1    
    15   21    8 1    
    16    8   23 1    
    17   10    9 1    
    18    9   11 1    
    19    9   29 1    
    20   10   12 1    
    21   14   10 1    
    22   11   13 1    
    23   11   30 1    
    24   12   31 1    
    25   13   15 1    
    26   13   32 1    
    27   16   14 1    
    28   14   17 2    
    29   15   33 1    
    30   15   34 1    
    31   19   16 2    
    32   16   35 1    
    33   17   20 1    
    34   17   36 1    
    35   18   22 1    
    36   18   37 1    
    37   18   38 1    
    38   19   21 1    
    39   20   21 2    
    40   20   39 1    
    41   22   40 1    
    42   22   41 1    
    43   22   42 1    
    44   23   43 1    
    45   23   44 1    
    46   23   45 1    
@<TRIPOS>SUBSTRUCTURE
     1 ****        1 TEMP              0 ****  ****    0 ROOT 
@<TRIPOS>NORMAL
@<TRIPOS>FF_PBC
FORCE_FIELD_SETUP_FEATURE Force Field Setup information
v1.0  0 0.000000 0.000000 0.000000 0.000000 0.000000 0.000000 NONE 0 0 0 0 1 0 0 0 0 0 0 0 0
