@<TRIPOS>MOLECULE
MOL013428
   76    80     1     1     0
SMALL
GASTEIGER


@<TRIPOS>ATOM
      1 C           0.492224   -3.429785    0.499419 C.ar      1 <1>         0.077223 
      2 C           0.555721   -2.228537    1.114082 C.ar      1 <1>         0.092370 
      3 C           1.730154   -3.945060   -0.199635 C.2       1 <1>         0.170906 
      4 C          -0.773813   -4.204356    0.516392 C.ar      1 <1>         0.087976 
      5 O           1.729533   -1.473444    1.095186 O.3       1 <1>        -0.335586 
      6 C          -0.633815   -1.687488    1.807151 C.ar      1 <1>        -0.000657 
      7 C           2.973907   -3.104866   -0.186943 C.3       1 <1>         0.041564 
      8 O           1.740599   -5.025146   -0.769238 O.2       1 <1>        -0.291783 
      9 C          -1.876967   -3.679226    1.122934 C.ar      1 <1>        -0.000944 
     10 O          -0.820295   -5.462017   -0.093849 O.3       1 <1>        -0.358966 
     11 C           2.542168   -1.624632   -0.081477 C.3       1 <1>         0.097162 
     12 C          -1.809526   -2.350275    1.783861 C.ar      1 <1>         0.084385 
     13 C           3.778874   -0.720985   -0.011622 C.ar      1 <1>        -0.017820 
     14 O          -2.931050   -1.754103    2.373210 O.3       1 <1>        -0.312385 
     15 C           4.508316   -0.390745   -1.259590 C.ar      1 <1>        -0.053654 
     16 C           4.241044   -0.194616    1.212765 C.ar      1 <1>        -0.053654 
     17 C          -4.238304   -2.049879    1.851231 C.3       1 <1>         0.193645 
     18 C           5.646113    0.427482   -1.219137 C.ar      1 <1>        -0.031353 
     19 C           5.442109    0.674325    1.257211 C.ar      1 <1>        -0.031353 
     20 O          -4.268683   -2.030423    0.408363 O.3       1 <1>        -0.340158 
     21 C          -5.322422   -1.131292    2.475271 C.3       1 <1>         0.134509 
     22 C           6.141416    0.979106    0.062430 C.ar      1 <1>         0.075832 
     23 C          -4.155994   -0.716436   -0.185027 C.3       1 <1>         0.113377 
     24 C          -5.207944    0.307699    1.906505 C.3       1 <1>         0.114074 
     25 O          -6.621979   -1.709575    2.225008 O.3       1 <1>        -0.384091 
     26 O           7.288400    1.784495    0.045094 O.3       1 <1>        -0.347912 
     27 C          -5.239666    0.256485    0.353955 C.3       1 <1>         0.111906 
     28 C          -2.717390   -0.137149   -0.152573 C.3       1 <1>         0.079556 
     29 O          -4.021495    0.941462    2.424076 O.3       1 <1>        -0.386401 
     30 C           7.898020    2.267811    1.253035 C.3       1 <1>         0.043026 
     31 O          -6.522261   -0.198728   -0.126783 O.3       1 <1>        -0.386488 
     32 O          -2.655462    1.112848   -0.870893 O.3       1 <1>        -0.346051 
     33 C          -1.312453    1.620940   -1.053105 C.3       1 <1>         0.187899 
     34 C          -0.709405    1.098016   -2.384071 C.3       1 <1>         0.134110 
     35 O          -1.516091    3.045137   -1.116626 O.3       1 <1>        -0.343081 
     36 C           0.620090    1.841426   -2.689207 C.3       1 <1>         0.113972 
     37 O          -0.488899   -0.328076   -2.325023 O.3       1 <1>        -0.384104 
     38 C          -0.318556    3.811080   -1.351684 C.3       1 <1>         0.087307 
     39 C           0.367659    3.372675   -2.677663 C.3       1 <1>         0.109478 
     40 O           1.636240    1.433191   -1.750216 O.3       1 <1>        -0.386402 
     41 C           0.631682    3.852721   -0.121638 C.3       1 <1>        -0.036060 
     42 O          -0.473988    3.666913   -3.812672 O.3       1 <1>        -0.386579 
     43 H          -0.553773   -0.737064    2.320824 H         1 <1>         0.066941 
     44 H           3.560174   -3.272629   -1.103745 H         1 <1>         0.037400 
     45 H           3.584256   -3.379945    0.686441 H         1 <1>         0.037400 
     46 H          -2.798986   -4.243644    1.120282 H         1 <1>         0.066933 
     47 H          -1.503928   -6.036469    0.232026 H         1 <1>         0.217342 
     48 H           1.948953   -1.323200   -0.963471 H         1 <1>         0.065571 
     49 H           4.161867   -0.784734   -2.208874 H         1 <1>         0.062190 
     50 H           3.722402   -0.423701    2.137097 H         1 <1>         0.062190 
     51 H          -4.500641   -3.070591    2.171389 H         1 <1>         0.094160 
     52 H           6.178546    0.664390   -2.133537 H         1 <1>         0.064337 
     53 H           5.762414    1.059220    2.217163 H         1 <1>         0.064337 
     54 H          -5.146765   -1.101668    3.564453 H         1 <1>         0.067108 
     55 H          -4.376207   -0.866533   -1.255235 H         1 <1>         0.064677 
     56 H          -6.073087    0.891636    2.263812 H         1 <1>         0.064758 
     57 H          -7.342872   -1.216758    2.604358 H         1 <1>         0.210111 
     58 H          -5.057236    1.264991   -0.055675 H         1 <1>         0.064673 
     59 H          -2.047000   -0.899394   -0.578303 H         1 <1>         0.058744 
     60 H          -2.409149    0.076688    0.875201 H         1 <1>         0.058744 
     61 H          -3.903456    1.837746    2.120721 H         1 <1>         0.210005 
     62 H           8.799903    2.829190    0.966773 H         1 <1>         0.052869 
     63 H           8.199189    1.433810    1.905226 H         1 <1>         0.052869 
     64 H           7.223123    2.949008    1.792740 H         1 <1>         0.052869 
     65 H          -7.251977    0.361454    0.118419 H         1 <1>         0.210004 
     66 H          -0.654408    1.367849   -0.206201 H         1 <1>         0.093739 
     67 H          -1.454123    1.327953   -3.166208 H         1 <1>         0.067095 
     68 H           0.946677    1.551986   -3.704385 H         1 <1>         0.064757 
     69 H          -0.167215   -0.692364   -3.143545 H         1 <1>         0.210110 
     70 H          -0.670720    4.847872   -1.484595 H         1 <1>         0.062075 
     71 H           1.328516    3.901932   -2.803079 H         1 <1>         0.064584 
     72 H           2.490391    1.819447   -1.920816 H         1 <1>         0.210005 
     73 H           1.442699    4.576952   -0.297953 H         1 <1>         0.025536 
     74 H           0.061851    4.179191    0.762503 H         1 <1>         0.025536 
     75 H           1.092083    2.885208    0.114285 H         1 <1>         0.025536 
     76 H          -0.685486    4.591445   -3.906119 H         1 <1>         0.210002 
@<TRIPOS>BOND
     1    1    2 2    
     2    1    3 1    
     3    1    4 1    
     4    2    5 1    
     5    2    6 1    
     6    3    7 1    
     7    3    8 2    
     8    4    9 2    
     9    4   10 1    
    10    5   11 1    
    11    6   12 2    
    12    6   43 1    
    13    7   11 1    
    14    7   44 1    
    15    7   45 1    
    16    9   12 1    
    17    9   46 1    
    18   10   47 1    
    19   11   13 1    
    20   11   48 1    
    21   12   14 1    
    22   13   15 1    
    23   13   16 2    
    24   14   17 1    
    25   15   18 2    
    26   15   49 1    
    27   16   19 1    
    28   16   50 1    
    29   17   20 1    
    30   17   21 1    
    31   17   51 1    
    32   18   22 1    
    33   18   52 1    
    34   19   22 2    
    35   19   53 1    
    36   20   23 1    
    37   21   24 1    
    38   21   25 1    
    39   21   54 1    
    40   22   26 1    
    41   23   27 1    
    42   23   28 1    
    43   23   55 1    
    44   24   27 1    
    45   24   29 1    
    46   24   56 1    
    47   25   57 1    
    48   26   30 1    
    49   27   31 1    
    50   27   58 1    
    51   28   32 1    
    52   28   59 1    
    53   28   60 1    
    54   29   61 1    
    55   30   62 1    
    56   30   63 1    
    57   30   64 1    
    58   31   65 1    
    59   32   33 1    
    60   33   34 1    
    61   33   35 1    
    62   33   66 1    
    63   34   36 1    
    64   34   37 1    
    65   34   67 1    
    66   35   38 1    
    67   36   39 1    
    68   36   40 1    
    69   36   68 1    
    70   37   69 1    
    71   38   39 1    
    72   38   41 1    
    73   38   70 1    
    74   39   42 1    
    75   39   71 1    
    76   40   72 1    
    77   41   73 1    
    78   41   74 1    
    79   41   75 1    
    80   42   76 1    
@<TRIPOS>SUBSTRUCTURE
     1 ****        1 TEMP              0 ****  ****    0 ROOT 
@<TRIPOS>NORMAL
@<TRIPOS>FF_PBC
FORCE_FIELD_SETUP_FEATURE Force Field Setup information
v1.0  0 0.000000 0.000000 0.000000 0.000000 0.000000 0.000000 NONE 0 0 0 0 1 0 0 0 0 0 0 0 0
