@<TRIPOS>MOLECULE
MOL004037
   39    40     1     1     0
SMALL
GASTEIGER


@<TRIPOS>ATOM
      1 C          -0.136754   -0.170511   -0.824037 C.3       1 <1>        -0.027242 
      2 C           0.803867    0.365626    0.299814 C.3       1 <1>        -0.031603 
      3 C          -0.673926   -1.577796   -0.441527 C.3       1 <1>        -0.013350 
      4 C          -1.366082    0.723105   -1.154200 C.3       1 <1>        -0.028345 
      5 C           2.000509   -0.621157    0.447317 C.3       1 <1>        -0.031154 
      6 C           1.265868    1.856183    0.135259 C.3       1 <1>        -0.043328 
      7 C          -1.649846   -1.522922    0.768778 C.3       1 <1>        -0.027722 
      8 C           0.455468   -2.528047   -0.116606 C.2       1 <1>        -0.072869 
      9 C           1.652293   -2.080512    0.287328 C.2       1 <1>        -0.084465 
     10 C          -2.372134    0.747778   -0.030283 C.2       1 <1>        -0.076224 
     11 C          -2.491692   -0.272745    0.829397 C.2       1 <1>        -0.084447 
     12 C           2.215843    2.295863    1.287178 C.3       1 <1>        -0.062396 
     13 C           1.930829    2.189605   -1.233484 C.3       1 <1>        -0.062396 
     14 C           0.156379   -4.003980   -0.264499 C.3       1 <1>        -0.043506 
     15 C          -3.241237    1.982063    0.057276 C.3       1 <1>        -0.043778 
     16 H           0.467904   -0.277663   -1.740979 H         1 <1>         0.031246 
     17 H           0.238376    0.335625    1.244514 H         1 <1>         0.030916 
     18 H          -1.222655   -1.958057   -1.320603 H         1 <1>         0.035134 
     19 H          -1.890947    0.318462   -2.034310 H         1 <1>         0.031284 
     20 H          -1.054453    1.741458   -1.422361 H         1 <1>         0.031284 
     21 H           2.471743   -0.496312    1.435277 H         1 <1>         0.031025 
     22 H           2.758098   -0.421983   -0.322699 H         1 <1>         0.031025 
     23 H           0.372067    2.496667    0.235839 H         1 <1>         0.029832 
     24 H          -1.086781   -1.578387    1.714150 H         1 <1>         0.031322 
     25 H          -2.322124   -2.395450    0.738318 H         1 <1>         0.031322 
     26 H           2.444732   -2.795360    0.513745 H         1 <1>         0.057172 
     27 H          -3.231096   -0.221626    1.630052 H         1 <1>         0.057172 
     28 H           3.195683    1.802563    1.204441 H         1 <1>         0.023242 
     29 H           1.778692    2.052197    2.268098 H         1 <1>         0.023242 
     30 H           2.385161    3.383862    1.250961 H         1 <1>         0.023242 
     31 H           2.875971    1.646979   -1.372399 H         1 <1>         0.023242 
     32 H           2.157337    3.266252   -1.280907 H         1 <1>         0.023242 
     33 H           1.271537    1.957130   -2.081066 H         1 <1>         0.023242 
     34 H          -0.677300   -4.283781    0.396066 H         1 <1>         0.027445 
     35 H           1.018678   -4.637984   -0.008830 H         1 <1>         0.027445 
     36 H          -0.128028   -4.220716   -1.305042 H         1 <1>         0.027445 
     37 H          -2.611666    2.860027    0.266638 H         1 <1>         0.027436 
     38 H          -4.003572    1.908622    0.847620 H         1 <1>         0.027436 
     39 H          -3.756043    2.134223   -0.903434 H         1 <1>         0.027436 
@<TRIPOS>BOND
     1    1    2 1    
     2    1    3 1    
     3    1    4 1    
     4    1   16 1    
     5    2    5 1    
     6    2    6 1    
     7    2   17 1    
     8    3    7 1    
     9    3    8 1    
    10    3   18 1    
    11    4   10 1    
    12    4   19 1    
    13    4   20 1    
    14    5    9 1    
    15    5   21 1    
    16    5   22 1    
    17    6   12 1    
    18    6   13 1    
    19    6   23 1    
    20    7   11 1    
    21    7   24 1    
    22    7   25 1    
    23    8    9 2    
    24    8   14 1    
    25    9   26 1    
    26   10   11 2    
    27   10   15 1    
    28   11   27 1    
    29   12   28 1    
    30   12   29 1    
    31   12   30 1    
    32   13   31 1    
    33   13   32 1    
    34   13   33 1    
    35   14   34 1    
    36   14   35 1    
    37   14   36 1    
    38   15   37 1    
    39   15   38 1    
    40   15   39 1    
@<TRIPOS>SUBSTRUCTURE
     1 ****        1 TEMP              0 ****  ****    0 ROOT 
@<TRIPOS>NORMAL
@<TRIPOS>FF_PBC
FORCE_FIELD_SETUP_FEATURE Force Field Setup information
v1.0  0 0.000000 0.000000 0.000000 0.000000 0.000000 0.000000 NONE 0 0 0 0 1 0 0 0 0 0 0 0 0
