@<TRIPOS>MOLECULE
MOL000392
   32    34     1     1     0
SMALL
GASTEIGER


@<TRIPOS>ATOM
      1 C          -0.290516    1.928597    0.000208 C.2       1 <1>         0.058253 
      2 C          -0.137357    0.586877   -0.000001 C.2       1 <1>         0.052566 
      3 C          -1.375539   -0.243269   -0.000222 C.2       1 <1>         0.198092 
      4 C          -2.723192    0.429983    0.000014 C.ar      1 <1>         0.052904 
      5 C          -2.697017    1.899098    0.000164 C.ar      1 <1>         0.095569 
      6 O          -1.476938    2.560915    0.000211 O.3       1 <1>        -0.315353 
      7 C          -3.894234    2.626945    0.000269 C.ar      1 <1>        -0.000723 
      8 C          -5.197568    1.913132    0.000289 C.ar      1 <1>         0.075081 
      9 C          -5.219329    0.508102    0.000219 C.ar      1 <1>        -0.031105 
     10 C          -3.952894   -0.262770    0.000072 C.ar      1 <1>        -0.045981 
     11 O          -1.394802   -1.461141   -0.000634 O.2       1 <1>        -0.286478 
     12 C           1.264185   -0.030537   -0.000021 C.ar      1 <1>        -0.012138 
     13 C           2.507143    0.799860   -0.000286 C.ar      1 <1>        -0.051413 
     14 C           3.794353    0.234747   -0.000292 C.ar      1 <1>        -0.031115 
     15 C           3.994340   -1.227621   -0.000111 C.ar      1 <1>         0.075849 
     16 C           2.859119   -2.048249    0.000126 C.ar      1 <1>        -0.031115 
     17 C           1.500003   -1.453819    0.000225 C.ar      1 <1>        -0.051413 
     18 O           5.301202   -1.734482   -0.000193 O.3       1 <1>        -0.347912 
     19 C           5.568928   -3.146203   -0.000355 C.3       1 <1>         0.043026 
     20 O          -6.404806    2.614311    0.000385 O.3       1 <1>        -0.359749 
     21 H           0.492880    2.675732    0.000401 H         1 <1>         0.089749 
     22 H          -3.856529    3.710284    0.000347 H         1 <1>         0.066945 
     23 H          -6.170986   -0.012341    0.000262 H         1 <1>         0.064341 
     24 H          -3.976597   -1.347526   -0.000002 H         1 <1>         0.062621 
     25 H           2.485636    1.878500   -0.000489 H         1 <1>         0.062443 
     26 H           4.670372    0.875507   -0.000444 H         1 <1>         0.064346 
     27 H           2.945916   -3.127783    0.000240 H         1 <1>         0.064346 
     28 H           0.699687   -2.173614    0.000505 H         1 <1>         0.062443 
     29 H           6.660644   -3.280258   -0.000486 H         1 <1>         0.052869 
     30 H           5.161025   -3.625711   -0.903399 H         1 <1>         0.052869 
     31 H           5.161229   -3.625894    0.902684 H         1 <1>         0.052869 
     32 H          -6.298260    3.558726    0.000314 H         1 <1>         0.217315 
@<TRIPOS>BOND
     1    1    2 2    
     2    1    6 1    
     3    1   21 1    
     4    2    3 1    
     5    2   12 1    
     6    3    4 1    
     7    3   11 2    
     8    4    5 1    
     9    4   10 2    
    10    5    6 1    
    11    5    7 2    
    12    7    8 1    
    13    7   22 1    
    14    8    9 2    
    15    8   20 1    
    16    9   10 1    
    17    9   23 1    
    18   10   24 1    
    19   12   13 1    
    20   12   17 2    
    21   13   14 2    
    22   13   25 1    
    23   14   15 1    
    24   14   26 1    
    25   15   16 2    
    26   15   18 1    
    27   16   17 1    
    28   16   27 1    
    29   17   28 1    
    30   18   19 1    
    31   19   29 1    
    32   19   30 1    
    33   19   31 1    
    34   20   32 1    
@<TRIPOS>SUBSTRUCTURE
     1 ****        1 TEMP              0 ****  ****    0 ROOT 
@<TRIPOS>NORMAL
@<TRIPOS>FF_PBC
FORCE_FIELD_SETUP_FEATURE Force Field Setup information
v1.0  0 0.000000 0.000000 0.000000 0.000000 0.000000 0.000000 NONE 0 0 0 0 1 0 0 0 0 0 0 0 0
