@<TRIPOS>MOLECULE
MOL004634
   82    87     1     1     0
SMALL
GASTEIGER


@<TRIPOS>ATOM
      1 C          -3.320570   -1.334125   -3.648428 C.3       1 <1>        -0.025737 
      2 C          -4.577363   -1.887592   -2.939526 C.3       1 <1>         0.062974 
      3 C          -4.187254   -2.583439   -1.580092 C.3       1 <1>         0.020282 
      4 C          -2.860797   -1.951026   -0.982848 C.3       1 <1>        -0.025216 
      5 C          -2.628365   -0.418184   -1.268941 C.3       1 <1>        -0.021745 
      6 C          -2.680910   -0.176573   -2.831498 C.3       1 <1>        -0.044446 
      7 C          -2.573587   -2.299733    0.514193 C.3       1 <1>        -0.048517 
      8 C          -1.129250   -1.911240    0.964053 C.3       1 <1>        -0.046183 
      9 C          -0.746436   -0.416176    0.704175 C.3       1 <1>        -0.016907 
     10 C          -1.178011   -0.044941   -0.760335 C.3       1 <1>        -0.011151 
     11 C           0.833250   -0.153290    0.816539 C.3       1 <1>         0.009124 
     12 C           1.053975    1.397249    0.746971 C.3       1 <1>         0.096991 
     13 C           0.262030    1.995612   -0.400222 C.2       1 <1>        -0.055410 
     14 C          -0.720530    1.367669   -1.065104 C.2       1 <1>        -0.081074 
     15 C           1.452125   -0.681608    2.156572 C.3       1 <1>        -0.017380 
     16 C           2.834696   -0.048012    2.522328 C.3       1 <1>         0.063916 
     17 C           2.874906    1.508295    2.291478 C.3       1 <1>         0.025848 
     18 C           2.513863    1.923724    0.849669 C.3       1 <1>         0.002843 
     19 C           4.230525    2.153750    2.735954 C.3       1 <1>        -0.042066 
     20 C           4.763262    3.201924    1.716237 C.3       1 <1>        -0.047195 
     21 C           4.874869    2.651971    0.245544 C.3       1 <1>        -0.034485 
     22 C           3.689767    1.684695   -0.127538 C.3       1 <1>        -0.041426 
     23 H          -2.042922   -2.462690   -1.514451 H         1 <1>         0.031300 
     24 C           1.639387   -0.821960   -0.362118 C.3       1 <1>        -0.056020 
     25 C           4.873966    3.873763   -0.724416 C.3       1 <1>        -0.059801 
     26 O           0.574413    2.017568    1.967575 O.3       1 <1>        -0.367842 
     27 O          -5.518514   -0.800593   -2.862571 O.3       1 <1>        -0.391162 
     28 C          -3.706572    0.511042   -0.611997 C.3       1 <1>        -0.058736 
     29 C          -1.559029    0.452139    1.739503 C.3       1 <1>        -0.058408 
     30 H           2.368959    3.014788    0.759741 H         1 <1>         0.033899 
     31 C           1.620717    2.129195    2.959406 C.3       1 <1>         0.057154 
     32 C           6.234681    1.908342    0.061192 C.3       1 <1>        -0.059801 
     33 O           3.850999   -0.824922    1.855000 O.3       1 <1>        -0.391131 
     34 C          -5.386237   -2.526111   -0.582893 C.3       1 <1>        -0.054830 
     35 C          -3.971127   -4.108740   -1.901721 C.3       1 <1>         0.052200 
     36 O          -3.681050   -4.899848   -0.735778 O.3       1 <1>        -0.394374 
     37 H          -3.600224   -0.957999   -4.648059 H         1 <1>         0.029039 
     38 H          -2.595087   -2.148247   -3.807287 H         1 <1>         0.029039 
     39 H          -5.040012   -2.609287   -3.637655 H         1 <1>         0.059936 
     40 H          -3.232087    0.750827   -3.059476 H         1 <1>         0.027158 
     41 H          -1.687520   -0.035573   -3.288014 H         1 <1>         0.027158 
     42 H          -2.647286   -3.382867    0.681991 H         1 <1>         0.026847 
     43 H          -3.334574   -1.859218    1.166960 H         1 <1>         0.026847 
     44 H          -0.457156   -2.601477    0.440267 H         1 <1>         0.027097 
     45 H          -1.022684   -2.128554    2.039553 H         1 <1>         0.027097 
     46 H          -0.574590   -0.664301   -1.429515 H         1 <1>         0.035379 
     47 H           0.498823    3.017196   -0.700530 H         1 <1>         0.059762 
     48 H          -1.204397    1.917791   -1.873161 H         1 <1>         0.057297 
     49 H           1.567009   -1.775915    2.095936 H         1 <1>         0.029668 
     50 H           0.790308   -0.511360    3.011219 H         1 <1>         0.029668 
     51 H           2.999868   -0.221942    3.602229 H         1 <1>         0.059965 
     52 H           5.024418    1.408034    2.856306 H         1 <1>         0.027239 
     53 H           4.106848    2.621405    3.726341 H         1 <1>         0.027239 
     54 H           4.096429    4.077677    1.765748 H         1 <1>         0.027062 
     55 H           5.748206    3.566778    2.052020 H         1 <1>         0.027062 
     56 H           3.351186    1.829970   -1.165641 H         1 <1>         0.027428 
     57 H           4.055956    0.659989   -0.047637 H         1 <1>         0.027428 
     58 H           2.673148   -1.050656   -0.110817 H         1 <1>         0.023625 
     59 H           1.254358   -1.798230   -0.673999 H         1 <1>         0.023625 
     60 H           1.672232   -0.176055   -1.252303 H         1 <1>         0.023625 
     61 H           5.669612    4.584736   -0.452782 H         1 <1>         0.023499 
     62 H           3.910771    4.405229   -0.687918 H         1 <1>         0.023499 
     63 H           5.044579    3.550364   -1.762996 H         1 <1>         0.023499 
     64 H          -6.392310   -1.043556   -2.574925 H         1 <1>         0.209801 
     65 H          -4.013055    0.212926    0.390409 H         1 <1>         0.023534 
     66 H          -4.636644    0.551452   -1.186440 H         1 <1>         0.023534 
     67 H          -3.339703    1.545849   -0.560030 H         1 <1>         0.023534 
     68 H          -1.724768    1.476258    1.377318 H         1 <1>         0.023543 
     69 H          -2.538002    0.046685    1.990924 H         1 <1>         0.023543 
     70 H          -1.094694    0.528125    2.726031 H         1 <1>         0.023543 
     71 H           1.344969    1.669047    3.920147 H         1 <1>         0.056652 
     72 H           1.761823    3.207938    3.134809 H         1 <1>         0.056652 
     73 H           6.326739    1.070598    0.768037 H         1 <1>         0.023499 
     74 H           6.315378    1.506293   -0.960735 H         1 <1>         0.023499 
     75 H           7.084728    2.587787    0.227768 H         1 <1>         0.023499 
     76 H           4.751351   -0.674872    2.117086 H         1 <1>         0.209802 
     77 H          -5.192656   -3.129758    0.315475 H         1 <1>         0.023667 
     78 H          -6.293952   -2.936149   -1.051391 H         1 <1>         0.023667 
     79 H          -5.605323   -1.501564   -0.258755 H         1 <1>         0.023667 
     80 H          -4.889508   -4.533199   -2.343950 H         1 <1>         0.056334 
     81 H          -3.158766   -4.236821   -2.636411 H         1 <1>         0.056334 
     82 H          -3.547206   -5.825975   -0.917702 H         1 <1>         0.209420 
@<TRIPOS>BOND
     1    1    2 1    
     2    1    6 1    
     3    1   37 1    
     4    1   38 1    
     5    2    3 1    
     6    2   27 1    
     7    2   39 1    
     8    3    4 1    
     9    3   34 1    
    10    3   35 1    
    11    4    5 1    
    12    4    7 1    
    13    4   23 1    
    14    5    6 1    
    15    5   10 1    
    16    5   28 1    
    17    6   40 1    
    18    6   41 1    
    19    7    8 1    
    20    7   42 1    
    21    7   43 1    
    22    8    9 1    
    23    8   44 1    
    24    8   45 1    
    25    9   10 1    
    26    9   11 1    
    27    9   29 1    
    28   10   14 1    
    29   10   46 1    
    30   11   12 1    
    31   11   15 1    
    32   11   24 1    
    33   12   13 1    
    34   12   18 1    
    35   12   26 1    
    36   13   14 2    
    37   13   47 1    
    38   14   48 1    
    39   15   16 1    
    40   15   49 1    
    41   15   50 1    
    42   16   17 1    
    43   16   33 1    
    44   16   51 1    
    45   17   18 1    
    46   17   19 1    
    47   17   31 1    
    48   18   22 1    
    49   18   30 1    
    50   19   20 1    
    51   19   52 1    
    52   19   53 1    
    53   20   21 1    
    54   20   54 1    
    55   20   55 1    
    56   21   22 1    
    57   21   25 1    
    58   21   32 1    
    59   22   56 1    
    60   22   57 1    
    61   24   58 1    
    62   24   59 1    
    63   24   60 1    
    64   25   61 1    
    65   25   62 1    
    66   25   63 1    
    67   26   31 1    
    68   27   64 1    
    69   28   65 1    
    70   28   66 1    
    71   28   67 1    
    72   29   68 1    
    73   29   69 1    
    74   29   70 1    
    75   31   71 1    
    76   31   72 1    
    77   32   73 1    
    78   32   74 1    
    79   32   75 1    
    80   33   76 1    
    81   34   77 1    
    82   34   78 1    
    83   34   79 1    
    84   35   36 1    
    85   35   80 1    
    86   35   81 1    
    87   36   82 1    
@<TRIPOS>SUBSTRUCTURE
     1 ****        1 TEMP              0 ****  ****    0 ROOT 
@<TRIPOS>NORMAL
@<TRIPOS>FF_PBC
FORCE_FIELD_SETUP_FEATURE Force Field Setup information
v1.0  0 0.000000 0.000000 0.000000 0.000000 0.000000 0.000000 NONE 0 0 0 0 1 0 0 0 0 0 0 0 0
