@<TRIPOS>MOLECULE
MOL002108
   24    25     1     1     0
SMALL
GASTEIGER


@<TRIPOS>ATOM
      1 C          -0.557268    0.484107    0.568397 C.3       1 <1>        -0.021815 
      2 C          -0.830022   -1.047417    0.525475 C.3       1 <1>        -0.016340 
      3 C           0.478751   -1.811534    0.569391 C.2       1 <1>        -0.080122 
      4 C           1.462563   -1.403267   -0.246970 C.2       1 <1>        -0.062488 
      5 C           1.174030   -0.218087   -1.091682 C.2       1 <1>        -0.051095 
      6 C          -0.227521    0.343031   -0.944949 C.3       1 <1>        -0.010186 
      7 C           2.077068    0.318832   -1.920299 C.2       1 <1>        -0.095222 
      8 C          -1.152342   -0.902918   -0.987279 C.3       1 <1>        -0.038912 
      9 C          -1.843852    1.324562    0.835355 C.3       1 <1>        -0.058725 
     10 C           0.578410    0.991320    1.510009 C.3       1 <1>        -0.058725 
     11 H          -1.635812   -1.435981    1.168252 H         1 <1>         0.034858 
     12 H           0.606045   -2.663741    1.237152 H         1 <1>         0.057507 
     13 H           2.426381   -1.911828   -0.279153 H         1 <1>         0.061719 
     14 H          -0.503505    1.185189   -1.599167 H         1 <1>         0.035418 
     15 H           1.836097    1.190264   -2.527902 H         1 <1>         0.053758 
     16 H           3.077316   -0.104190   -2.006139 H         1 <1>         0.053758 
     17 H          -2.206656   -0.665602   -1.195335 H         1 <1>         0.027703 
     18 H          -0.834033   -1.730786   -1.643618 H         1 <1>         0.027703 
     19 H          -1.631756    2.387708    0.645820 H         1 <1>         0.023534 
     20 H          -2.142085    1.211434    1.888635 H         1 <1>         0.023534 
     21 H          -2.705860    1.044329    0.216024 H         1 <1>         0.023534 
     22 H           0.761702    2.057297    1.307962 H         1 <1>         0.023534 
     23 H           1.540249    0.472549    1.414483 H         1 <1>         0.023534 
     24 H           0.252204    0.884728    2.555440 H         1 <1>         0.023534 
@<TRIPOS>BOND
     1    1    2 1    
     2    1    6 1    
     3    1    9 1    
     4    1   10 1    
     5    2    3 1    
     6    2    8 1    
     7    2   11 1    
     8    3    4 2    
     9    3   12 1    
    10    4    5 1    
    11    4   13 1    
    12    5    6 1    
    13    5    7 2    
    14    6    8 1    
    15    6   14 1    
    16    7   15 1    
    17    7   16 1    
    18    8   17 1    
    19    8   18 1    
    20    9   19 1    
    21    9   20 1    
    22    9   21 1    
    23   10   22 1    
    24   10   23 1    
    25   10   24 1    
@<TRIPOS>SUBSTRUCTURE
     1 ****        1 TEMP              0 ****  ****    0 ROOT 
@<TRIPOS>NORMAL
@<TRIPOS>FF_PBC
FORCE_FIELD_SETUP_FEATURE Force Field Setup information
v1.0  0 0.000000 0.000000 0.000000 0.000000 0.000000 0.000000 NONE 0 0 0 0 1 0 0 0 0 0 0 0 0
