@<TRIPOS>MOLECULE
MOL002103
   58    62     1     1     0
SMALL
GASTEIGER


@<TRIPOS>ATOM
      1 O          -2.378531   -0.019140    1.953969 O.3       1 <1>        -0.307435 
      2 C          -1.337907    0.983933    1.808937 C.3       1 <1>         0.078691 
      3 C           0.058045    0.257938    1.822316 C.3       1 <1>         0.035110 
      4 C          -0.328586   -1.147531    2.104151 C.2       1 <1>         0.029638 
      5 C          -1.777928   -1.186634    2.154351 C.2       1 <1>         0.290421 
      6 O          -1.497472   -0.887681   -2.492733 O.3       1 <1>        -0.274202 
      7 C          -0.249740   -1.134795   -2.888512 C.2       1 <1>         0.086162 
      8 C           0.768042   -0.907055   -1.843422 C.2       1 <1>        -0.007923 
      9 C           0.119929   -0.373904   -0.807153 C.2       1 <1>         0.034324 
     10 C          -1.283707   -0.423887   -1.261665 C.2       1 <1>         0.295397 
     11 C           0.647069   -2.049245    2.234940 C.2       1 <1>        -0.071137 
     12 C           2.032299   -1.457527    2.093522 C.3       1 <1>        -0.018709 
     13 C           2.122131   -0.732452    0.716365 C.3       1 <1>        -0.026550 
     14 C           2.447829   -1.788398   -0.377537 C.3       1 <1>        -0.045010 
     15 C           2.239743   -1.203432   -1.793180 C.3       1 <1>        -0.024492 
     16 C           0.818514    0.115431    0.458166 C.3       1 <1>         0.005717 
     17 C           1.050796    0.710347    2.942836 C.3       1 <1>        -0.039676 
     18 C           2.138891   -0.376863    3.197989 C.3       1 <1>        -0.045568 
     19 O          -2.401453   -2.214228    2.360016 O.2       1 <1>        -0.259556 
     20 O          -2.244530   -0.082956   -0.598202 O.2       1 <1>        -0.259157 
     21 C          -0.062264   -1.531231   -4.156390 C.2       1 <1>        -0.053070 
     22 C           1.252268   -1.796374   -4.850604 C.3       1 <1>        -0.032278 
     23 C           1.102390   -1.759366   -6.396256 C.3       1 <1>        -0.052380 
     24 C           2.458075   -2.021682   -7.103178 C.3       1 <1>        -0.064997 
     25 C          -1.601255    2.026320    2.932946 C.3       1 <1>        -0.025146 
     26 C          -2.947546    2.774757    2.719065 C.3       1 <1>        -0.050919 
     27 C          -3.209437    3.801421    3.855231 C.3       1 <1>        -0.055830 
     28 C          -4.545979    4.557338    3.637385 C.3       1 <1>        -0.065275 
     29 H           2.821121   -2.217592    2.227045 H         1 <1>         0.034599 
     30 H           2.989513   -0.047649    0.739851 H         1 <1>         0.031262 
     31 H           1.110899    1.141968    0.180540 H         1 <1>         0.036305 
     32 H          -1.428852    1.546542    0.867883 H         1 <1>         0.061110 
     33 H           0.453432   -3.103840    2.429110 H         1 <1>         0.057959 
     34 H           3.489871   -2.135059   -0.266423 H         1 <1>         0.027142 
     35 H           1.790917   -2.667133   -0.255501 H         1 <1>         0.027142 
     36 H           2.546208   -1.979112   -2.506974 H         1 <1>         0.031417 
     37 H           2.835572   -0.291766   -1.954917 H         1 <1>         0.031417 
     38 H           1.513006    1.661922    2.633559 H         1 <1>         0.027495 
     39 H           0.550848    0.877751    3.907410 H         1 <1>         0.027495 
     40 H           1.990951   -0.873815    4.173327 H         1 <1>         0.027126 
     41 H           3.146689    0.071753    3.209439 H         1 <1>         0.027126 
     42 H          -0.969127   -1.665856   -4.748048 H         1 <1>         0.059779 
     43 H           1.985406   -1.025608   -4.566802 H         1 <1>         0.030812 
     44 H           1.618400   -2.792486   -4.556055 H         1 <1>         0.030812 
     45 H           0.379413   -2.528489   -6.716933 H         1 <1>         0.026559 
     46 H           0.716776   -0.772729   -6.704384 H         1 <1>         0.026559 
     47 H           2.326394   -1.997350   -8.196566 H         1 <1>         0.022987 
     48 H           3.194599   -1.252705   -6.822665 H         1 <1>         0.022987 
     49 H           2.853615   -3.009865   -6.820631 H         1 <1>         0.022987 
     50 H          -0.789339    2.770929    2.957019 H         1 <1>         0.029055 
     51 H          -1.657945    1.514058    3.906424 H         1 <1>         0.029055 
     52 H          -3.774696    2.046323    2.691413 H         1 <1>         0.026600 
     53 H          -2.926007    3.305951    1.753400 H         1 <1>         0.026600 
     54 H          -2.384894    4.532981    3.889538 H         1 <1>         0.026266 
     55 H          -3.246705    3.278083    4.825353 H         1 <1>         0.026266 
     56 H          -4.709009    5.281053    4.451600 H         1 <1>         0.022978 
     57 H          -5.389544    3.849788    3.623746 H         1 <1>         0.022978 
     58 H          -4.527566    5.104243    2.681924 H         1 <1>         0.022978 
@<TRIPOS>BOND
     1    2    1 1    
     2    5    1 1    
     3    3    2 1    
     4    2   25 1    
     5    2   32 1    
     6    3    4 1    
     7   16    3 1    
     8    3   17 1    
     9    4    5 1    
    10    4   11 2    
    11    5   19 2    
    12    6    7 1    
    13   10    6 1    
    14    8    7 1    
    15    7   21 2    
    16    9    8 2    
    17    8   15 1    
    18    9   10 1    
    19    9   16 1    
    20   10   20 2    
    21   11   12 1    
    22   11   33 1    
    23   12   13 1    
    24   12   18 1    
    25   12   29 1    
    26   13   14 1    
    27   13   16 1    
    28   13   30 1    
    29   14   15 1    
    30   14   34 1    
    31   14   35 1    
    32   15   36 1    
    33   15   37 1    
    34   16   31 1    
    35   17   18 1    
    36   17   38 1    
    37   17   39 1    
    38   18   40 1    
    39   18   41 1    
    40   21   22 1    
    41   21   42 1    
    42   22   23 1    
    43   22   43 1    
    44   22   44 1    
    45   23   24 1    
    46   23   45 1    
    47   23   46 1    
    48   24   47 1    
    49   24   48 1    
    50   24   49 1    
    51   25   26 1    
    52   25   50 1    
    53   25   51 1    
    54   26   27 1    
    55   26   52 1    
    56   26   53 1    
    57   27   28 1    
    58   27   54 1    
    59   27   55 1    
    60   28   56 1    
    61   28   57 1    
    62   28   58 1    
@<TRIPOS>SUBSTRUCTURE
     1 ****        6 TEMP              0 ****  ****    0 ROOT 
@<TRIPOS>NORMAL
@<TRIPOS>FF_PBC
FORCE_FIELD_SETUP_FEATURE Force Field Setup information
v1.0  0 0.000000 0.000000 0.000000 0.000000 0.000000 0.000000 NONE 0 0 0 0 1 0 0 0 0 0 0 0 0
