@<TRIPOS>MOLECULE
MOL005294
   26    25     1     1     0
SMALL
GASTEIGER


@<TRIPOS>ATOM
      1 C          -0.450629   -1.373680   -0.131784 C.3       1 <1>        -0.044128 
      2 C           0.765886   -0.505311   -0.586320 C.3       1 <1>        -0.050476 
      3 C           0.849820    0.905637    0.062159 C.3       1 <1>        -0.053064 
      4 C          -1.812058   -0.741195   -0.554150 C.3       1 <1>        -0.053312 
      5 C          -0.400184   -1.684383    1.391695 C.3       1 <1>        -0.062423 
      6 C           2.105453    1.676419   -0.432191 C.3       1 <1>        -0.055903 
      7 C          -3.019745   -1.699710   -0.369776 C.3       1 <1>        -0.065034 
      8 C           2.195158    3.084950    0.211501 C.3       1 <1>        -0.065276 
      9 H          -0.352212   -2.336484   -0.665400 H         1 <1>         0.029804 
     10 H           0.727061   -0.384925   -1.681716 H         1 <1>         0.026785 
     11 H           1.694286   -1.051645   -0.350401 H         1 <1>         0.026785 
     12 H           0.905791    0.815972    1.157977 H         1 <1>         0.026528 
     13 H          -0.042685    1.496105   -0.195888 H         1 <1>         0.026528 
     14 H          -1.761313   -0.464014   -1.620416 H         1 <1>         0.026521 
     15 H          -2.008150    0.173140    0.027527 H         1 <1>         0.026521 
     16 H          -1.090737   -2.501105    1.649699 H         1 <1>         0.023242 
     17 H           0.611743   -2.001834    1.686941 H         1 <1>         0.023242 
     18 H          -0.678149   -0.800939    1.985075 H         1 <1>         0.023242 
     19 H           2.065525    1.785316   -1.529015 H         1 <1>         0.026265 
     20 H           3.014939    1.107603   -0.175691 H         1 <1>         0.026265 
     21 H          -3.931163   -1.234982   -0.778706 H         1 <1>         0.022986 
     22 H          -3.200662   -1.916161    0.693434 H         1 <1>         0.022986 
     23 H          -2.846200   -2.647837   -0.901910 H         1 <1>         0.022986 
     24 H           1.308362    3.683908   -0.048279 H         1 <1>         0.022978 
     25 H           2.258105    3.003649    1.307915 H         1 <1>         0.022978 
     26 H           3.091761    3.611604   -0.152179 H         1 <1>         0.022978 
@<TRIPOS>BOND
     1    1    2 1    
     2    1    4 1    
     3    1    5 1    
     4    1    9 1    
     5    2    3 1    
     6    2   10 1    
     7    2   11 1    
     8    3    6 1    
     9    3   12 1    
    10    3   13 1    
    11    4    7 1    
    12    4   14 1    
    13    4   15 1    
    14    5   16 1    
    15    5   17 1    
    16    5   18 1    
    17    6    8 1    
    18    6   19 1    
    19    6   20 1    
    20    7   21 1    
    21    7   22 1    
    22    7   23 1    
    23    8   24 1    
    24    8   25 1    
    25    8   26 1    
@<TRIPOS>SUBSTRUCTURE
     1 ****        1 TEMP              0 ****  ****    0 ROOT 
@<TRIPOS>NORMAL
@<TRIPOS>FF_PBC
FORCE_FIELD_SETUP_FEATURE Force Field Setup information
v1.0  0 0.000000 0.000000 0.000000 0.000000 0.000000 0.000000 NONE 0 0 0 0 1 0 0 0 0 0 0 0 0
