@<TRIPOS>MOLECULE
MOL004635
  123   130     1     1     0
SMALL
GASTEIGER


@<TRIPOS>ATOM
      1 C          -1.669706   -1.698153   -2.048055 C.3       1 <1>        -0.025376 
      2 C          -2.851512   -2.192095   -1.172810 C.3       1 <1>         0.069511 
      3 C          -2.288154   -3.173991   -0.059235 C.3       1 <1>         0.020641 
      4 C          -0.758205   -2.876091    0.257338 C.3       1 <1>        -0.025206 
      5 C          -0.332262   -1.363306    0.195608 C.3       1 <1>        -0.021744 
      6 C          -0.715670   -0.789234   -1.226100 C.3       1 <1>        -0.044437 
      7 C          -0.163061   -3.588763    1.518274 C.3       1 <1>        -0.048517 
      8 C           1.392067   -3.481863    1.606297 C.3       1 <1>        -0.046183 
      9 C           1.947766   -2.020170    1.533304 C.3       1 <1>        -0.016907 
     10 C           1.239414   -1.282260    0.343325 C.3       1 <1>        -0.011151 
     11 C           3.524905   -1.975331    1.246133 C.3       1 <1>         0.009124 
     12 C           3.986271   -0.485442    1.411752 C.3       1 <1>         0.096991 
     13 C           3.044247    0.447802    0.673726 C.2       1 <1>        -0.055410 
     14 C           1.835916    0.103816    0.201314 C.2       1 <1>        -0.081074 
     15 C           4.354321   -2.859249    2.235076 C.3       1 <1>        -0.017380 
     16 C           5.869813   -2.493092    2.287921 C.3       1 <1>         0.063916 
     17 C           6.137688   -0.947882    2.328706 C.3       1 <1>         0.025848 
     18 C           5.487036   -0.174002    1.163063 C.3       1 <1>         0.002843 
     19 C           7.672528   -0.648631    2.376729 C.3       1 <1>        -0.042066 
     20 C           8.087129    0.576484    1.513366 C.3       1 <1>        -0.047195 
     21 C           7.665339    0.432600    0.004061 C.3       1 <1>        -0.034485 
     22 C           6.293739   -0.322317   -0.150683 C.3       1 <1>        -0.041426 
     23 H          -0.191585   -3.360263   -0.552587 H         1 <1>         0.031301 
     24 C           3.898096   -2.464619   -0.205520 C.3       1 <1>        -0.056020 
     25 C           7.555546    1.863015   -0.609400 C.3       1 <1>        -0.059801 
     26 O          -3.536053   -0.971574   -0.765126 O.3       1 <1>        -0.344807 
     27 C          -1.061481   -0.497780    1.277095 C.3       1 <1>        -0.058736 
     28 C           1.584765   -1.306881    2.892019 C.3       1 <1>        -0.058408 
     29 C           8.770032   -0.331528   -0.791715 C.3       1 <1>        -0.059801 
     30 O           6.379257   -3.135565    3.475811 O.3       1 <1>        -0.391131 
     31 O           3.977078   -0.111001    2.817366 O.3       1 <1>        -0.367842 
     32 C           5.262412   -0.340540    3.449721 C.3       1 <1>         0.057154 
     33 H           5.523956    0.916992    1.328054 H         1 <1>         0.033899 
     34 C          -3.164071   -3.177586    1.237253 C.3       1 <1>        -0.054821 
     35 C          -2.416919   -4.637209   -0.622360 C.3       1 <1>         0.052209 
     36 O          -1.674289   -4.809046   -1.844031 O.3       1 <1>        -0.394374 
     37 C          -4.970349   -1.068130   -0.576324 C.3       1 <1>         0.188127 
     38 O          -5.733611   -1.431925   -1.744495 O.3       1 <1>        -0.343072 
     39 C          -5.925240   -0.374931   -2.705185 C.3       1 <1>         0.087317 
     40 C          -6.574448    0.875051   -2.039813 C.3       1 <1>         0.109842 
     41 C          -5.716735    1.383047   -0.851791 C.3       1 <1>         0.120486 
     42 C          -5.538700    0.194435    0.133670 C.3       1 <1>         0.134483 
     43 C          -3.591964    2.552741   -0.501990 C.3       1 <1>         0.188437 
     44 O          -4.127763    3.526008    0.419469 O.3       1 <1>        -0.340520 
     45 C          -4.449016    4.814209   -0.158913 C.3       1 <1>         0.113005 
     46 C          -3.277991    5.411787   -0.989882 C.3       1 <1>         0.111896 
     47 C          -2.756261    4.393018   -2.033349 C.3       1 <1>         0.114061 
     48 C          -2.365001    3.096066   -1.283901 C.3       1 <1>         0.134124 
     49 O          -3.743108    4.164731   -3.059439 O.3       1 <1>        -0.386401 
     50 C          -5.809840    4.859240   -0.903209 C.3       1 <1>         0.073015 
     51 O          -6.836649    1.930968   -2.982451 O.3       1 <1>        -0.386569 
     52 C          -4.644226   -0.109850   -3.537320 C.3       1 <1>        -0.036060 
     53 O          -6.099151    6.215755   -1.295282 O.3       1 <1>        -0.392366 
     54 O          -2.208580    5.840853   -0.123507 O.3       1 <1>        -0.386488 
     55 O          -1.261149    3.402392   -0.401599 O.3       1 <1>        -0.384104 
     56 O          -6.850404   -0.062477    0.689662 O.3       1 <1>        -0.384094 
     57 O          -4.547610    2.011178   -1.430670 O.3       1 <1>        -0.340053 
     58 H          -2.035417   -1.120972   -2.908943 H         1 <1>         0.029048 
     59 H          -1.119798   -2.543947   -2.486311 H         1 <1>         0.029048 
     60 H          -3.524775   -2.728296   -1.863940 H         1 <1>         0.060308 
     61 H          -1.183365    0.201893   -1.128229 H         1 <1>         0.027158 
     62 H           0.151303   -0.629169   -1.887923 H         1 <1>         0.027158 
     63 H          -0.391792   -4.665405    1.492728 H         1 <1>         0.026847 
     64 H          -0.616014   -3.215089    2.441457 H         1 <1>         0.026847 
     65 H           1.780134   -4.110545    0.796100 H         1 <1>         0.027097 
     66 H           1.727253   -3.945429    2.548799 H         1 <1>         0.027097 
     67 H           1.549177   -1.800985   -0.568506 H         1 <1>         0.035379 
     68 H           3.365850    1.479637    0.525325 H         1 <1>         0.059762 
     69 H           1.265053    0.876121   -0.315981 H         1 <1>         0.057297 
     70 H           4.252220   -3.922110    1.962526 H         1 <1>         0.029668 
     71 H           3.988868   -2.786913    3.263349 H         1 <1>         0.029668 
     72 H           6.394102   -2.945135    1.431415 H         1 <1>         0.059965 
     73 H           8.242221   -1.498591    1.971492 H         1 <1>         0.027239 
     74 H           7.986680   -0.510805    3.424012 H         1 <1>         0.027239 
     75 H           7.641061    1.470942    1.976871 H         1 <1>         0.027062 
     76 H           9.178262    0.719301    1.582337 H         1 <1>         0.027062 
     77 H           5.713930    0.062529   -1.004269 H         1 <1>         0.027428 
     78 H           6.516927   -1.374110   -0.345941 H         1 <1>         0.027428 
     79 H           3.281716   -3.290557   -0.575080 H         1 <1>         0.023625 
     80 H           3.828739   -1.647355   -0.938879 H         1 <1>         0.023625 
     81 H           4.906795   -2.874343   -0.280889 H         1 <1>         0.023625 
     82 H           8.497635    2.415129   -0.468010 H         1 <1>         0.023499 
     83 H           6.746755    2.440941   -0.137685 H         1 <1>         0.023499 
     84 H           7.348591    1.811079   -1.689524 H         1 <1>         0.023499 
     85 H          -1.168838   -0.981731    2.248331 H         1 <1>         0.023534 
     86 H          -2.083568   -0.249590    0.977851 H         1 <1>         0.023534 
     87 H          -0.536578    0.455592    1.427808 H         1 <1>         0.023534 
     88 H           0.632148   -1.614161    3.319323 H         1 <1>         0.023543 
     89 H           1.537559   -0.214162    2.786698 H         1 <1>         0.023543 
     90 H           2.277289   -1.524058    3.709470 H         1 <1>         0.023543 
     91 H           8.465330   -0.456564   -1.842390 H         1 <1>         0.023499 
     92 H           9.722364    0.220544   -0.776216 H         1 <1>         0.023499 
     93 H           8.951358   -1.329947   -0.366833 H         1 <1>         0.023499 
     94 H           7.317617   -3.051844    3.606807 H         1 <1>         0.209802 
     95 H           5.187609   -0.970315    4.349099 H         1 <1>         0.056652 
     96 H           5.656125    0.641055    3.757909 H         1 <1>         0.056652 
     97 H          -2.754591   -3.835953    2.013511 H         1 <1>         0.023667 
     98 H          -4.163120   -3.590203    1.044200 H         1 <1>         0.023667 
     99 H          -3.276019   -2.175072    1.667460 H         1 <1>         0.023667 
    100 H          -2.073785   -5.380225    0.113886 H         1 <1>         0.056334 
    101 H          -3.474656   -4.869851   -0.837557 H         1 <1>         0.056334 
    102 H          -1.737372   -5.685513   -2.213541 H         1 <1>         0.209420 
    103 H          -5.188023   -1.889292    0.107155 H         1 <1>         0.093748 
    104 H          -6.664237   -0.773381   -3.421665 H         1 <1>         0.062075 
    105 H          -7.559684    0.561665   -1.653819 H         1 <1>         0.064594 
    106 H          -6.290216    2.153890   -0.317334 H         1 <1>         0.065136 
    107 H          -4.883628    0.473524    0.974156 H         1 <1>         0.067105 
    108 H          -3.196312    1.726391    0.101063 H         1 <1>         0.093753 
    109 H          -4.584536    5.487572    0.703718 H         1 <1>         0.064668 
    110 H          -3.615144    6.317711   -1.518964 H         1 <1>         0.064673 
    111 H          -1.851100    4.822288   -2.498629 H         1 <1>         0.064758 
    112 H          -2.045364    2.349846   -2.031189 H         1 <1>         0.067095 
    113 H          -3.457842    3.550452   -3.728545 H         1 <1>         0.210005 
    114 H          -5.795040    4.206658   -1.784754 H         1 <1>         0.058370 
    115 H          -6.600816    4.511495   -0.218034 H         1 <1>         0.058370 
    116 H          -6.031320    2.318882   -3.309295 H         1 <1>         0.210002 
    117 H          -4.852220    0.550341   -4.392392 H         1 <1>         0.025536 
    118 H          -4.278548   -1.068710   -3.935178 H         1 <1>         0.025536 
    119 H          -3.851088    0.344212   -2.934779 H         1 <1>         0.025536 
    120 H          -6.928731    6.304777   -1.756018 H         1 <1>         0.209508 
    121 H          -1.818531    5.108758    0.347896 H         1 <1>         0.210004 
    122 H          -0.918004    2.643581    0.060680 H         1 <1>         0.210110 
    123 H          -6.873654   -0.739094    1.359934 H         1 <1>         0.210111 
@<TRIPOS>BOND
     1    2    1 1    
     2    1    6 1    
     3    1   58 1    
     4    1   59 1    
     5    2    3 1    
     6   26    2 1    
     7    2   60 1    
     8    3    4 1    
     9    3   34 1    
    10    3   35 1    
    11    4    5 1    
    12    4    7 1    
    13    4   23 1    
    14    6    5 1    
    15    5   10 1    
    16    5   27 1    
    17    6   61 1    
    18    6   62 1    
    19    7    8 1    
    20    7   63 1    
    21    7   64 1    
    22    8    9 1    
    23    8   65 1    
    24    8   66 1    
    25   10    9 1    
    26    9   11 1    
    27    9   28 1    
    28   10   14 1    
    29   10   67 1    
    30   11   12 1    
    31   11   15 1    
    32   11   24 1    
    33   13   12 1    
    34   12   18 1    
    35   12   31 1    
    36   14   13 2    
    37   13   68 1    
    38   14   69 1    
    39   15   16 1    
    40   15   70 1    
    41   15   71 1    
    42   16   17 1    
    43   16   30 1    
    44   16   72 1    
    45   18   17 1    
    46   17   19 1    
    47   17   32 1    
    48   18   22 1    
    49   18   33 1    
    50   19   20 1    
    51   19   73 1    
    52   19   74 1    
    53   21   20 1    
    54   20   75 1    
    55   20   76 1    
    56   22   21 1    
    57   21   25 1    
    58   21   29 1    
    59   22   77 1    
    60   22   78 1    
    61   24   79 1    
    62   24   80 1    
    63   24   81 1    
    64   25   82 1    
    65   25   83 1    
    66   25   84 1    
    67   37   26 1    
    68   27   85 1    
    69   27   86 1    
    70   27   87 1    
    71   28   88 1    
    72   28   89 1    
    73   28   90 1    
    74   29   91 1    
    75   29   92 1    
    76   29   93 1    
    77   30   94 1    
    78   31   32 1    
    79   32   95 1    
    80   32   96 1    
    81   34   97 1    
    82   34   98 1    
    83   34   99 1    
    84   35   36 1    
    85   35  100 1    
    86   35  101 1    
    87   36  102 1    
    88   37   38 1    
    89   42   37 1    
    90   37  103 1    
    91   39   38 1    
    92   40   39 1    
    93   39   52 1    
    94   39  104 1    
    95   41   40 1    
    96   40   51 1    
    97   40  105 1    
    98   41   42 1    
    99   57   41 1    
   100   41  106 1    
   101   42   56 1    
   102   42  107 1    
   103   43   44 1    
   104   43   48 1    
   105   43   57 1    
   106   43  108 1    
   107   44   45 1    
   108   45   46 1    
   109   45   50 1    
   110   45  109 1    
   111   46   47 1    
   112   46   54 1    
   113   46  110 1    
   114   47   48 1    
   115   47   49 1    
   116   47  111 1    
   117   48   55 1    
   118   48  112 1    
   119   49  113 1    
   120   50   53 1    
   121   50  114 1    
   122   50  115 1    
   123   51  116 1    
   124   52  117 1    
   125   52  118 1    
   126   52  119 1    
   127   53  120 1    
   128   54  121 1    
   129   55  122 1    
   130   56  123 1    
@<TRIPOS>SUBSTRUCTURE
     1 ****       43 TEMP              0 ****  ****    0 ROOT 
@<TRIPOS>NORMAL
@<TRIPOS>FF_PBC
FORCE_FIELD_SETUP_FEATURE Force Field Setup information
v1.0  0 0.000000 0.000000 0.000000 0.000000 0.000000 0.000000 NONE 0 0 0 0 1 0 0 0 0 0 0 0 0
