@<TRIPOS>MOLECULE
MOL001648
   30    31     1     1     0
SMALL
GASTEIGER


@<TRIPOS>ATOM
      1 O          -2.452709   -0.316103   -0.183158 O.3       1 <1>        -0.366103 
      2 O          -0.972114    1.483229   -0.175474 O.3       1 <1>        -0.321970 
      3 O           1.434273    1.900339    3.600065 O.3       1 <1>        -0.390724 
      4 O           0.128353   -0.923708   -3.608231 O.3       1 <1>        -0.314939 
      5 O           1.973971   -1.225501   -2.474979 O.2       1 <1>        -0.259507 
      6 C          -0.445030   -0.418578    1.220654 C.3       1 <1>         0.040800 
      7 C           0.339911   -1.071074    0.051733 C.3       1 <1>         0.006323 
      8 C          -1.565356    0.462598    0.640275 C.3       1 <1>         0.168381 
      9 C           1.803291   -1.146698    0.585823 C.3       1 <1>        -0.026630 
     10 C           0.628449    0.368957    1.920020 C.2       1 <1>        -0.039923 
     11 C           1.854838   -0.021017    1.577618 C.2       1 <1>        -0.081574 
     12 C           0.267813   -0.230037   -1.211695 C.2       1 <1>         0.050785 
     13 C           0.259117    1.460637    2.895084 C.3       1 <1>         0.065735 
     14 C          -0.272252    0.998590   -1.211699 C.2       1 <1>         0.052271 
     15 C           0.832254   -0.802351   -2.462704 C.2       1 <1>         0.291730 
     16 C          -1.247270   -0.485066   -3.623752 C.3       1 <1>         0.046187 
     17 H          -2.896680   -1.004507    0.301747 H         1 <1>         0.212509 
     18 H           1.260756    2.600555    4.222488 H         1 <1>         0.209834 
     19 H          -0.838286   -1.175485    1.918737 H         1 <1>         0.040164 
     20 H          -0.060393   -2.068728   -0.192988 H         1 <1>         0.036163 
     21 H          -2.135924    0.956123    1.446086 H         1 <1>         0.091760 
     22 H           1.983984   -2.086568    1.130689 H         1 <1>         0.031347 
     23 H           2.580914   -1.020058   -0.180783 H         1 <1>         0.031347 
     24 H           2.776134    0.412342    1.971484 H         1 <1>         0.057263 
     25 H          -0.184155    2.300559    2.335680 H         1 <1>         0.060399 
     26 H          -0.482818    1.063921    3.607098 H         1 <1>         0.060399 
     27 H          -0.161008    1.660758   -2.066906 H         1 <1>         0.089058 
     28 H          -1.686983   -0.919014   -4.532577 H         1 <1>         0.052972 
     29 H          -1.837756   -0.837553   -2.763523 H         1 <1>         0.052972 
     30 H          -1.332417    0.605981   -3.724050 H         1 <1>         0.052972 
@<TRIPOS>BOND
     1    8    1 1    
     2    1   17 1    
     3    2    8 1    
     4   14    2 1    
     5   13    3 1    
     6    3   18 1    
     7   15    4 1    
     8    4   16 1    
     9   15    5 2    
    10    7    6 1    
    11    6    8 1    
    12    6   10 1    
    13    6   19 1    
    14    7    9 1    
    15   12    7 1    
    16    7   20 1    
    17    8   21 1    
    18    9   11 1    
    19    9   22 1    
    20    9   23 1    
    21   11   10 2    
    22   10   13 1    
    23   11   24 1    
    24   12   14 2    
    25   12   15 1    
    26   13   25 1    
    27   13   26 1    
    28   14   27 1    
    29   16   28 1    
    30   16   29 1    
    31   16   30 1    
@<TRIPOS>SUBSTRUCTURE
     1 ****        6 TEMP              0 ****  ****    0 ROOT 
@<TRIPOS>NORMAL
@<TRIPOS>FF_PBC
FORCE_FIELD_SETUP_FEATURE Force Field Setup information
v1.0  0 0.000000 0.000000 0.000000 0.000000 0.000000 0.000000 NONE 0 0 0 0 1 0 0 0 0 0 0 0 0
