@<TRIPOS>MOLECULE
MOL000713
   23    22     1     1     0
SMALL
GASTEIGER


@<TRIPOS>ATOM
      1 C          -0.259936    0.908846    0.000103 C.2       1 <1>        -0.080730 
      2 C          -1.415618    1.586645    0.000068 C.2       1 <1>        -0.023425 
      3 C          -0.224373   -0.601314    0.000162 C.3       1 <1>        -0.034372 
      4 C          -1.498425    3.062832    0.000025 C.2       1 <1>         0.152745 
      5 C           1.227821   -1.150610   -0.000087 C.3       1 <1>        -0.049854 
      6 C          -2.816185    3.792688    0.000024 C.3       1 <1>        -0.002012 
      7 O          -0.473496    3.725727   -0.000010 O.2       1 <1>        -0.292987 
      8 C           1.246619   -2.703602    0.000048 C.3       1 <1>        -0.055633 
      9 C           2.698078   -3.250096   -0.000178 C.3       1 <1>        -0.065267 
     10 H           0.680561    1.461673    0.000098 H         1 <1>         0.057307 
     11 H          -2.346764    1.020258    0.000076 H         1 <1>         0.064900 
     12 H          -0.754397   -0.966949    0.894438 H         1 <1>         0.030742 
     13 H          -0.754752   -0.967062   -0.893859 H         1 <1>         0.030742 
     14 H           1.755419   -0.778774   -0.894149 H         1 <1>         0.026813 
     15 H           1.755783   -0.778624    0.893699 H         1 <1>         0.026813 
     16 H          -3.670364    3.099643    0.000030 H         1 <1>         0.030912 
     17 H          -2.878607    4.429324    0.895183 H         1 <1>         0.030912 
     18 H          -2.878616    4.429313   -0.895141 H         1 <1>         0.030912 
     19 H           0.720637   -3.079238    0.893640 H         1 <1>         0.026274 
     20 H           0.720289   -3.079401   -0.893271 H         1 <1>         0.026274 
     21 H           2.688472   -4.351623   -0.000066 H         1 <1>         0.022978 
     22 H           3.238654   -2.904916   -0.895297 H         1 <1>         0.022978 
     23 H           3.239000   -2.904743    0.894664 H         1 <1>         0.022978 
@<TRIPOS>BOND
     1    1    2 2    
     2    1    3 1    
     3    1   10 1    
     4    2    4 1    
     5    2   11 1    
     6    3    5 1    
     7    3   12 1    
     8    3   13 1    
     9    4    6 1    
    10    4    7 2    
    11    5    8 1    
    12    5   14 1    
    13    5   15 1    
    14    6   16 1    
    15    6   17 1    
    16    6   18 1    
    17    8    9 1    
    18    8   19 1    
    19    8   20 1    
    20    9   21 1    
    21    9   22 1    
    22    9   23 1    
@<TRIPOS>SUBSTRUCTURE
     1 ****        1 TEMP              0 ****  ****    0 ROOT 
@<TRIPOS>NORMAL
@<TRIPOS>FF_PBC
FORCE_FIELD_SETUP_FEATURE Force Field Setup information
v1.0  0 0.000000 0.000000 0.000000 0.000000 0.000000 0.000000 NONE 0 0 0 0 1 0 0 0 0 0 0 0 0
