@<TRIPOS>MOLECULE
MOL005021
   24    24     1     1     0
SMALL
GASTEIGER


@<TRIPOS>ATOM
      1 C          -0.631618   -0.275267    0.046162 C.ar      1 <1>         0.059295 
      2 C          -0.781791   -1.750612    0.032167 C.ar      1 <1>        -0.048115 
      3 C           0.349789   -2.570612   -0.043361 C.ar      1 <1>        -0.060980 
      4 C           1.700436   -1.964509   -0.111306 C.ar      1 <1>        -0.060980 
      5 C           1.843044   -0.573821   -0.092924 C.ar      1 <1>        -0.048115 
      6 C           0.644649    0.295941   -0.003462 C.ar      1 <1>         0.059295 
      7 C           0.793739    1.801263    0.021948 C.2       1 <1>         0.294315 
      8 O           0.383001    2.424251   -0.942661 O.2       1 <1>        -0.259212 
      9 O           1.340824    2.486878    1.038815 O.3       1 <1>        -0.314742 
     10 C          -1.851545    0.615742    0.130041 C.2       1 <1>         0.294315 
     11 C           1.636705    1.707438    2.215154 C.3       1 <1>         0.046196 
     12 O          -2.736331    0.778349   -0.866216 O.3       1 <1>        -0.314742 
     13 C          -2.384529    0.142413   -2.110788 C.3       1 <1>         0.046196 
     14 O          -2.032513    1.226965    1.169085 O.2       1 <1>        -0.259212 
     15 H          -1.770622   -2.194982    0.085596 H         1 <1>         0.062548 
     16 H           0.241879   -3.650508   -0.052950 H         1 <1>         0.061779 
     17 H           2.576809   -2.601850   -0.176046 H         1 <1>         0.061779 
     18 H           2.832167   -0.129525   -0.150277 H         1 <1>         0.062548 
     19 H           2.012027    2.404021    2.979257 H         1 <1>         0.052972 
     20 H           0.732649    1.218058    2.612003 H         1 <1>         0.052972 
     21 H           2.416842    0.952553    2.039578 H         1 <1>         0.052972 
     22 H          -3.153371    0.419171   -2.848171 H         1 <1>         0.052972 
     23 H          -1.410598    0.496942   -2.485091 H         1 <1>         0.052972 
     24 H          -2.374730   -0.954664   -2.032024 H         1 <1>         0.052972 
@<TRIPOS>BOND
     1    1    2 1    
     2    1    6 2    
     3    1   10 1    
     4    2    3 2    
     5    2   15 1    
     6    3    4 1    
     7    3   16 1    
     8    4    5 2    
     9    4   17 1    
    10    5    6 1    
    11    5   18 1    
    12    6    7 1    
    13    7    8 2    
    14    7    9 1    
    15    9   11 1    
    16   10   12 1    
    17   10   14 2    
    18   11   19 1    
    19   11   20 1    
    20   11   21 1    
    21   12   13 1    
    22   13   22 1    
    23   13   23 1    
    24   13   24 1    
@<TRIPOS>SUBSTRUCTURE
     1 ****        1 TEMP              0 ****  ****    0 ROOT 
@<TRIPOS>NORMAL
@<TRIPOS>FF_PBC
FORCE_FIELD_SETUP_FEATURE Force Field Setup information
v1.0  0 0.000000 0.000000 0.000000 0.000000 0.000000 0.000000 NONE 0 0 0 0 1 0 0 0 0 0 0 0 0
