@<TRIPOS>MOLECULE
MOL000889
   39    41     1     1     0
SMALL
GASTEIGER


@<TRIPOS>ATOM
      1 C           2.301075   -1.789205    0.017521 C.3       1 <1>        -0.043532 
      2 C           3.354712   -0.647774   -0.010742 C.3       1 <1>        -0.047189 
      3 C           2.551957    0.677841   -0.182716 C.3       1 <1>        -0.013692 
      4 C           1.067848    0.246131   -0.083642 C.3       1 <1>         0.085911 
      5 C           0.020567    1.178051   -0.739637 C.3       1 <1>         0.003676 
      6 C          -1.195880    0.766017    0.047390 C.2       1 <1>        -0.009677 
      7 C          -0.782924   -0.108939    1.205263 C.3       1 <1>         0.194687 
      8 C          -0.925374   -1.615450    0.869858 C.3       1 <1>         0.026803 
      9 C          -0.221813   -1.923094   -0.432715 C.2       1 <1>        -0.065390 
     10 C           1.070690   -1.177980   -0.686926 C.3       1 <1>         0.009820 
     11 O           0.613286    0.184891    1.272393 O.3       1 <1>        -0.337116 
     12 O          -1.372518    0.270360    2.454111 O.3       1 <1>        -0.360883 
     13 C          -2.769802    2.046163   -1.426810 C.3       1 <1>        -0.043627 
     14 C          -2.453208    1.136577   -0.257079 C.2       1 <1>        -0.071350 
     15 C          -3.669331    0.690178    0.527467 C.3       1 <1>        -0.043627 
     16 C          -0.715573   -2.800836   -1.316250 C.2       1 <1>        -0.098912 
     17 C           2.949792    1.765977    0.849605 C.3       1 <1>        -0.059767 
     18 H           2.649309   -2.714846   -0.469321 H         1 <1>         0.027197 
     19 H           2.038711   -2.023275    1.062774 H         1 <1>         0.027197 
     20 H           3.960534   -0.662681    0.910167 H         1 <1>         0.026893 
     21 H           4.037108   -0.786732   -0.866391 H         1 <1>         0.026893 
     22 H           2.710750    1.075538   -1.200884 H         1 <1>         0.032613 
     23 H          -0.056847    1.009485   -1.824448 H         1 <1>         0.033990 
     24 H           0.250899    2.232610   -0.528742 H         1 <1>         0.033990 
     25 H          -0.451364   -2.201277    1.671250 H         1 <1>         0.036555 
     26 H          -1.988621   -1.890993    0.826571 H         1 <1>         0.036555 
     27 H           1.281235   -1.111953   -1.768054 H         1 <1>         0.037367 
     28 H          -0.952873   -0.183414    3.175769 H         1 <1>         0.213093 
     29 H          -3.472318    2.829350   -1.104024 H         1 <1>         0.027437 
     30 H          -1.895665    2.554994   -1.854951 H         1 <1>         0.027437 
     31 H          -3.248735    1.454020   -2.220860 H         1 <1>         0.027437 
     32 H          -3.470179   -0.067063    1.294786 H         1 <1>         0.027437 
     33 H          -4.411288    0.267088   -0.166328 H         1 <1>         0.027437 
     34 H          -4.114884    1.564047    1.025761 H         1 <1>         0.027437 
     35 H          -0.199123   -3.014078   -2.251660 H         1 <1>         0.053452 
     36 H          -1.647841   -3.332592   -1.128479 H         1 <1>         0.053452 
     37 H           2.351998    2.678233    0.705847 H         1 <1>         0.023331 
     38 H           4.013517    2.022439    0.727640 H         1 <1>         0.023331 
     39 H           2.792379    1.402086    1.876388 H         1 <1>         0.023331 
@<TRIPOS>BOND
     1    1    2 1    
     2    1   10 1    
     3    1   18 1    
     4    1   19 1    
     5    2    3 1    
     6    2   20 1    
     7    2   21 1    
     8    3    4 1    
     9    3   17 1    
    10    3   22 1    
    11    4    5 1    
    12    4   10 1    
    13    4   11 1    
    14    5    6 1    
    15    5   23 1    
    16    5   24 1    
    17    6    7 1    
    18    6   14 2    
    19    7    8 1    
    20    7   11 1    
    21    7   12 1    
    22    8    9 1    
    23    8   25 1    
    24    8   26 1    
    25    9   10 1    
    26    9   16 2    
    27   10   27 1    
    28   12   28 1    
    29   14   13 1    
    30   13   29 1    
    31   13   30 1    
    32   13   31 1    
    33   14   15 1    
    34   15   32 1    
    35   15   33 1    
    36   15   34 1    
    37   16   35 1    
    38   16   36 1    
    39   17   37 1    
    40   17   38 1    
    41   17   39 1    
@<TRIPOS>SUBSTRUCTURE
     1 ****        1 TEMP              0 ****  ****    0 ROOT 
@<TRIPOS>NORMAL
@<TRIPOS>FF_PBC
FORCE_FIELD_SETUP_FEATURE Force Field Setup information
v1.0  0 0.000000 0.000000 0.000000 0.000000 0.000000 0.000000 NONE 0 0 0 0 1 0 0 0 0 0 0 0 0
