@<TRIPOS>MOLECULE
MOL004713
   42    43     1     1     0
SMALL
GASTEIGER


@<TRIPOS>ATOM
      1 O          -2.728745   -0.511011    2.868687 O.3       1 <1>        -0.388845 
      2 C           0.115586   -0.621179   -1.574387 C.3       1 <1>        -0.025268 
      3 C           0.380864    0.699322   -0.781285 C.3       1 <1>        -0.014414 
      4 C          -1.168980    0.117202    1.153526 C.3       1 <1>        -0.012073 
      5 C           0.308585    0.434310    0.747611 C.3       1 <1>        -0.040590 
      6 C          -1.020233   -1.453466   -0.886813 C.3       1 <1>        -0.046729 
      7 C          -1.954004   -0.584800   -0.005178 C.3       1 <1>        -0.047093 
      8 C          -0.287980   -0.164988   -3.009083 C.3       1 <1>        -0.043631 
      9 C          -1.323810   -0.574401    2.552634 C.3       1 <1>         0.063348 
     10 C           1.568819    1.418280   -1.381246 C.2       1 <1>        -0.072923 
     11 C           1.381235   -1.538523   -1.666696 C.3       1 <1>        -0.059008 
     12 C           0.845100    0.671427   -3.675669 C.3       1 <1>        -0.033997 
     13 C           1.745416    1.414260   -2.711360 C.2       1 <1>        -0.084726 
     14 C          -0.544918    0.212381    3.647838 C.3       1 <1>        -0.036079 
     15 C          -0.886198   -2.068229    2.573785 C.3       1 <1>        -0.036079 
     16 C           2.510606    2.140268   -0.444260 C.3       1 <1>        -0.043507 
     17 H          -2.953105   -0.894506    3.709981 H         1 <1>         0.210147 
     18 H          -0.416906    1.439717   -0.957845 H         1 <1>         0.035089 
     19 H          -1.674232    1.092465    1.281927 H         1 <1>         0.032842 
     20 H           0.635429    1.321982    1.311248 H         1 <1>         0.027469 
     21 H           0.992891   -0.384524    1.000114 H         1 <1>         0.027469 
     22 H          -0.591048   -2.220740   -0.227354 H         1 <1>         0.027079 
     23 H          -1.612035   -1.989749   -1.646298 H         1 <1>         0.027079 
     24 H          -2.423694    0.158044   -0.671920 H         1 <1>         0.026900 
     25 H          -2.776434   -1.195392    0.400463 H         1 <1>         0.026900 
     26 H          -0.527090   -1.034014   -3.644305 H         1 <1>         0.027364 
     27 H          -1.204104    0.445111   -2.947920 H         1 <1>         0.027364 
     28 H           1.713363   -1.879031   -0.675715 H         1 <1>         0.023525 
     29 H           1.138496   -2.431402   -2.263182 H         1 <1>         0.023525 
     30 H           2.246540   -1.052775   -2.135852 H         1 <1>         0.023525 
     31 H           1.499476   -0.010198   -4.243831 H         1 <1>         0.030757 
     32 H           0.412724    1.384820   -4.396051 H         1 <1>         0.030757 
     33 H           2.584058    1.958277   -3.148181 H         1 <1>         0.057163 
     34 H           0.541574    0.140502    3.492653 H         1 <1>         0.025721 
     35 H          -0.837259    1.273329    3.637275 H         1 <1>         0.025721 
     36 H          -0.767330   -0.190952    4.647430 H         1 <1>         0.025721 
     37 H           0.156948   -2.195391    2.253618 H         1 <1>         0.025721 
     38 H          -1.536684   -2.674289    1.927910 H         1 <1>         0.025721 
     39 H          -0.974839   -2.471524    3.593945 H         1 <1>         0.025721 
     40 H           1.970240    2.941373    0.081544 H         1 <1>         0.027445 
     41 H           3.356535    2.599507   -0.977432 H         1 <1>         0.027445 
     42 H           2.923229    1.432680    0.290210 H         1 <1>         0.027445 
@<TRIPOS>BOND
     1    9    1 1    
     2    1   17 1    
     3    3    2 1    
     4    2    6 1    
     5    2    8 1    
     6    2   11 1    
     7    5    3 1    
     8    3   10 1    
     9    3   18 1    
    10    4    5 1    
    11    4    7 1    
    12    4    9 1    
    13    4   19 1    
    14    5   20 1    
    15    5   21 1    
    16    6    7 1    
    17    6   22 1    
    18    6   23 1    
    19    7   24 1    
    20    7   25 1    
    21    8   12 1    
    22    8   26 1    
    23    8   27 1    
    24    9   14 1    
    25    9   15 1    
    26   10   13 2    
    27   10   16 1    
    28   11   28 1    
    29   11   29 1    
    30   11   30 1    
    31   12   13 1    
    32   12   31 1    
    33   12   32 1    
    34   13   33 1    
    35   14   34 1    
    36   14   35 1    
    37   14   36 1    
    38   15   37 1    
    39   15   38 1    
    40   15   39 1    
    41   16   40 1    
    42   16   41 1    
    43   16   42 1    
@<TRIPOS>SUBSTRUCTURE
     1 ****        2 TEMP              0 ****  ****    0 ROOT 
@<TRIPOS>NORMAL
@<TRIPOS>FF_PBC
FORCE_FIELD_SETUP_FEATURE Force Field Setup information
v1.0  0 0.000000 0.000000 0.000000 0.000000 0.000000 0.000000 NONE 0 0 0 0 1 0 0 0 0 0 0 0 0
