@<TRIPOS>MOLECULE
MOL013437
   48    49     1     1     0
SMALL
GASTEIGER


@<TRIPOS>ATOM
      1 C          -1.396704    3.594453    1.794730 C.ar      1 <1>         0.096173 
      2 C          -0.224681    4.174097    2.490130 C.ar      1 <1>         0.008365 
      3 C          -0.317062    5.607377    2.944992 C.2       1 <1>        -0.046363 
      4 C          -1.446957    6.270219    2.681204 C.2       1 <1>         0.010953 
      5 C          -2.582281    5.638100    1.979715 C.2       1 <1>         0.291579 
      6 O          -2.548443    4.357037    1.583132 O.3       1 <1>        -0.273708 
      7 C          -1.349779    2.269451    1.348913 C.ar      1 <1>         0.002106 
      8 C          -0.129795    1.451549    1.547891 C.ar      1 <1>         0.108916 
      9 C           0.980368    1.999189    2.214151 C.ar      1 <1>         0.106397 
     10 C           0.922811    3.394707    2.706185 C.ar      1 <1>        -0.019511 
     11 O          -3.584215    6.296813    1.754718 O.2       1 <1>        -0.259480 
     12 O           2.149814    1.257000    2.407779 O.3       1 <1>        -0.345320 
     13 C           2.054989    0.138107    3.306489 C.3       1 <1>         0.043136 
     14 O          -0.096001    0.141510    1.063787 O.3       1 <1>        -0.338032 
     15 C           0.638476   -0.020167   -0.161284 C.3       1 <1>         0.072757 
     16 C           0.527388   -1.466764   -0.575097 C.2       1 <1>        -0.059195 
     17 C           1.500840   -2.392367   -0.604436 C.2       1 <1>        -0.074086 
     18 C           1.258546   -3.804711   -1.118433 C.3       1 <1>        -0.028491 
     19 C          -0.045825   -4.052778   -1.932556 C.3       1 <1>        -0.030847 
     20 C          -0.182912   -3.076668   -3.081726 C.2       1 <1>        -0.084989 
     21 C          -1.339754   -2.581732   -3.552802 C.2       1 <1>        -0.079608 
     22 C          -1.346397   -1.537246   -4.646655 C.3       1 <1>        -0.044049 
     23 C          -2.700446   -2.992417   -3.032502 C.3       1 <1>        -0.044049 
     24 C           2.916530   -2.120682   -0.133070 C.3       1 <1>        -0.043707 
     25 H           0.513742    6.085152    3.468102 H         1 <1>         0.062606 
     26 H          -1.545810    7.311375    2.987985 H         1 <1>         0.067748 
     27 H          -2.211073    1.838550    0.851941 H         1 <1>         0.067037 
     28 H           1.776842    3.807858    3.229184 H         1 <1>         0.065082 
     29 H           3.051385   -0.321571    3.375185 H         1 <1>         0.052871 
     30 H           1.347764   -0.621751    2.942857 H         1 <1>         0.052871 
     31 H           1.751043    0.466868    4.311599 H         1 <1>         0.052871 
     32 H           1.675430    0.329839   -0.060635 H         1 <1>         0.060924 
     33 H           0.166982    0.585487   -0.954275 H         1 <1>         0.060924 
     34 H          -0.490025   -1.712911   -0.873210 H         1 <1>         0.059433 
     35 H           2.103108   -4.082150   -1.770885 H         1 <1>         0.031286 
     36 H           1.270123   -4.487094   -0.250797 H         1 <1>         0.031286 
     37 H          -0.036670   -5.073619   -2.349524 H         1 <1>         0.031044 
     38 H          -0.890879   -3.988874   -1.230387 H         1 <1>         0.031044 
     39 H           0.752915   -2.753587   -3.540353 H         1 <1>         0.057155 
     40 H          -2.107636   -1.758363   -5.410105 H         1 <1>         0.027427 
     41 H          -1.582798   -0.566213   -4.186290 H         1 <1>         0.027427 
     42 H          -0.378455   -1.447178   -5.161587 H         1 <1>         0.027427 
     43 H          -3.460870   -2.953399   -3.826183 H         1 <1>         0.027427 
     44 H          -2.711604   -4.020769   -2.645076 H         1 <1>         0.027427 
     45 H          -3.002990   -2.302695   -2.231037 H         1 <1>         0.027427 
     46 H           2.963996   -1.384819    0.681576 H         1 <1>         0.027437 
     47 H           3.531093   -1.764386   -0.970894 H         1 <1>         0.027437 
     48 H           3.376139   -3.039481    0.260127 H         1 <1>         0.027437 
@<TRIPOS>BOND
     1    1    2 1    
     2    1    6 1    
     3    1    7 2    
     4    2    3 1    
     5    2   10 2    
     6    3    4 2    
     7    3   25 1    
     8    4    5 1    
     9    4   26 1    
    10    5    6 1    
    11    5   11 2    
    12    7    8 1    
    13    7   27 1    
    14    8    9 2    
    15    8   14 1    
    16    9   10 1    
    17    9   12 1    
    18   10   28 1    
    19   12   13 1    
    20   13   29 1    
    21   13   30 1    
    22   13   31 1    
    23   14   15 1    
    24   15   16 1    
    25   15   32 1    
    26   15   33 1    
    27   16   17 2    
    28   16   34 1    
    29   17   18 1    
    30   17   24 1    
    31   18   19 1    
    32   18   35 1    
    33   18   36 1    
    34   19   20 1    
    35   19   37 1    
    36   19   38 1    
    37   20   21 2    
    38   20   39 1    
    39   21   22 1    
    40   21   23 1    
    41   22   40 1    
    42   22   41 1    
    43   22   42 1    
    44   23   43 1    
    45   23   44 1    
    46   23   45 1    
    47   24   46 1    
    48   24   47 1    
    49   24   48 1    
@<TRIPOS>SUBSTRUCTURE
     1 ****        1 TEMP              0 ****  ****    0 ROOT 
@<TRIPOS>NORMAL
@<TRIPOS>FF_PBC
FORCE_FIELD_SETUP_FEATURE Force Field Setup information
v1.0  0 0.000000 0.000000 0.000000 0.000000 0.000000 0.000000 NONE 0 0 0 0 1 0 0 0 0 0 0 0 0
