@<TRIPOS>MOLECULE
MOL004906
   55    59     1     1     0
SMALL
GASTEIGER


@<TRIPOS>ATOM
      1 O          -1.855453    1.125748    0.687011 O.3       1 <1>        -0.343144 
      2 O          -6.236877   -1.001866    0.210178 O.3       1 <1>        -0.334125 
      3 O           5.891573    0.149240    1.108762 O.3       1 <1>        -0.334125 
      4 O           2.204471    1.211505   -1.962969 O.3       1 <1>        -0.358879 
      5 C           0.207848    0.152605   -0.134774 C.3       1 <1>         0.014553 
      6 C          -0.433928   -1.240924   -0.353459 C.3       1 <1>        -0.016187 
      7 C          -0.494265    0.866473    1.044605 C.3       1 <1>         0.061423 
      8 C          -1.961830   -1.160624   -0.225058 C.ar      1 <1>        -0.016010 
      9 C           1.721895    0.077585    0.136331 C.ar      1 <1>        -0.011341 
     10 C          -2.596837    0.006619    0.305951 C.ar      1 <1>         0.088953 
     11 C          -4.066515    0.040176    0.455382 C.ar      1 <1>         0.035007 
     12 C           2.654524    0.648255   -0.769826 C.ar      1 <1>         0.085668 
     13 C          -6.847402    0.300771    0.099078 C.3       1 <1>         0.088837 
     14 C          -4.849724   -1.045954    0.054547 C.ar      1 <1>         0.086883 
     15 C          -2.802228   -2.308815   -0.651316 C.ar      1 <1>        -0.053632 
     16 C           4.102513    0.656211   -0.434625 C.ar      1 <1>         0.034756 
     17 C           2.223201   -0.585573    1.366995 C.ar      1 <1>        -0.053307 
     18 C           6.854681    0.144805    0.044591 C.3       1 <1>         0.088837 
     19 C           4.548372    0.076364    0.756331 C.ar      1 <1>         0.086876 
     20 C          -4.201216   -2.250527   -0.515571 C.ar      1 <1>        -0.030640 
     21 C          -4.764953    1.238378    1.054897 C.2       1 <1>        -0.050887 
     22 C          -6.087682    1.339418    0.893381 C.2       1 <1>        -0.051917 
     23 C           3.592923   -0.590239    1.664889 C.ar      1 <1>        -0.030631 
     24 C           5.139285    1.301250   -1.326187 C.2       1 <1>        -0.050895 
     25 C           6.431768    1.058260   -1.084499 C.2       1 <1>        -0.051917 
     26 C          -8.288443    0.172419    0.653054 C.3       1 <1>        -0.031936 
     27 C          -6.856011    0.738895   -1.389399 C.3       1 <1>        -0.031936 
     28 C           6.987141   -1.304889   -0.484792 C.3       1 <1>        -0.031936 
     29 C           8.182662    0.628882    0.679285 C.3       1 <1>        -0.031936 
     30 H          -0.003372    0.765480   -1.027038 H         1 <1>         0.037526 
     31 H          -0.096065   -1.949634    0.416723 H         1 <1>         0.032055 
     32 H          -0.144436   -1.635733   -1.340540 H         1 <1>         0.032055 
     33 H          -0.480247    0.258783    1.962713 H         1 <1>         0.057101 
     34 H          -0.006913    1.832675    1.254761 H         1 <1>         0.057101 
     35 H          -2.334664   -3.195070   -1.068413 H         1 <1>         0.062188 
     36 H           1.536092   -1.076323    2.045588 H         1 <1>         0.062198 
     37 H          -4.823019   -3.086519   -0.823970 H         1 <1>         0.064357 
     38 H          -4.199401    1.994306    1.598540 H         1 <1>         0.062283 
     39 H          -6.617754    2.192381    1.319067 H         1 <1>         0.060053 
     40 H           3.967399   -1.077688    2.558957 H         1 <1>         0.064358 
     41 H           4.842914    1.951117   -2.152087 H         1 <1>         0.062283 
     42 H           7.191518    1.510708   -1.722754 H         1 <1>         0.060053 
     43 H          -8.242302   -0.127932    1.711168 H         1 <1>         0.026052 
     44 H          -8.827161    1.129467    0.577434 H         1 <1>         0.026052 
     45 H          -8.843832   -0.595070    0.094154 H         1 <1>         0.026052 
     46 H          -7.361415    1.710338   -1.503635 H         1 <1>         0.026052 
     47 H          -5.826012    0.836603   -1.767078 H         1 <1>         0.026052 
     48 H          -7.382404   -0.011014   -1.999139 H         1 <1>         0.026052 
     49 H           7.767551   -1.361726   -1.258267 H         1 <1>         0.026052 
     50 H           7.254008   -1.982447    0.341031 H         1 <1>         0.026052 
     51 H           6.033122   -1.642948   -0.918161 H         1 <1>         0.026052 
     52 H           8.453558   -0.022009    1.524923 H         1 <1>         0.026052 
     53 H           9.001993    0.617293   -0.054968 H         1 <1>         0.026052 
     54 H           8.056218    1.656253    1.054887 H         1 <1>         0.026052 
     55 H           2.683332    0.865958   -2.707385 H         1 <1>         0.217351 
@<TRIPOS>BOND
     1    7    1 1    
     2    1   10 1    
     3    2   13 1    
     4   14    2 1    
     5    3   18 1    
     6   19    3 1    
     7   12    4 1    
     8    4   55 1    
     9    5    6 1    
    10    5    7 1    
    11    9    5 1    
    12    5   30 1    
    13    6    8 1    
    14    6   31 1    
    15    6   32 1    
    16    7   33 1    
    17    7   34 1    
    18    8   10 2    
    19    8   15 1    
    20   12    9 2    
    21    9   17 1    
    22   10   11 1    
    23   11   14 2    
    24   11   21 1    
    25   16   12 1    
    26   13   22 1    
    27   13   26 1    
    28   13   27 1    
    29   20   14 1    
    30   15   20 2    
    31   15   35 1    
    32   16   19 2    
    33   16   24 1    
    34   17   23 2    
    35   17   36 1    
    36   18   25 1    
    37   18   28 1    
    38   18   29 1    
    39   19   23 1    
    40   20   37 1    
    41   21   22 2    
    42   21   38 1    
    43   22   39 1    
    44   23   40 1    
    45   24   25 2    
    46   24   41 1    
    47   25   42 1    
    48   26   43 1    
    49   26   44 1    
    50   26   45 1    
    51   27   46 1    
    52   27   47 1    
    53   27   48 1    
    54   28   49 1    
    55   28   50 1    
    56   28   51 1    
    57   29   52 1    
    58   29   53 1    
    59   29   54 1    
@<TRIPOS>SUBSTRUCTURE
     1 ****        5 TEMP              0 ****  ****    0 ROOT 
@<TRIPOS>NORMAL
@<TRIPOS>FF_PBC
FORCE_FIELD_SETUP_FEATURE Force Field Setup information
v1.0  0 0.000000 0.000000 0.000000 0.000000 0.000000 0.000000 NONE 0 0 0 0 1 0 0 0 0 0 0 0 0
