@<TRIPOS>MOLECULE
MOL002190
   39    41     1     1     0
SMALL
GASTEIGER


@<TRIPOS>ATOM
      1 C          -1.070483    0.758086    2.151242 C.2       1 <1>        -0.070149 
      2 C          -0.769417    1.681936    3.069398 C.2       1 <1>        -0.098910 
      3 C          -2.198454   -0.245963    2.286330 C.3       1 <1>        -0.031165 
      4 C          -1.952761   -1.250769    1.117574 C.3       1 <1>        -0.045218 
      5 C          -0.470535   -0.941872    0.805991 C.3       1 <1>        -0.025991 
      6 H           0.046082   -1.384491    1.682140 H         1 <1>         0.031454 
      7 C           0.324840   -1.394973   -0.449378 C.3       1 <1>        -0.028160 
      8 C           1.153557   -2.680455   -0.123437 C.3       1 <1>        -0.059271 
      9 C          -0.617555   -1.767194   -1.634694 C.3       1 <1>        -0.059271 
     10 C           1.305489   -0.169147   -0.654293 C.3       1 <1>        -0.032220 
     11 C           1.224393    0.644567    0.678840 C.3       1 <1>        -0.039822 
     12 C           0.949332    0.798740   -1.832608 C.3       1 <1>        -0.040497 
     13 C           2.224231    1.502782   -2.388146 C.3       1 <1>        -0.062146 
     14 C          -0.092199    1.877903   -1.405243 C.3       1 <1>        -0.049391 
     15 C          -1.035530    1.414683   -0.258504 C.3       1 <1>        -0.043144 
     16 C          -0.312973    0.592419    0.861079 C.3       1 <1>        -0.004898 
     17 H           0.058768    2.371036    2.908333 H         1 <1>         0.053458 
     18 H          -1.347264    1.759102    3.989556 H         1 <1>         0.053458 
     19 H          -2.115766   -0.748498    3.263522 H         1 <1>         0.031017 
     20 H          -3.183468    0.240836    2.208861 H         1 <1>         0.031017 
     21 H          -2.616035   -1.042071    0.266637 H         1 <1>         0.027139 
     22 H          -2.112579   -2.300321    1.416812 H         1 <1>         0.027139 
     23 H           1.713419   -3.012084   -1.011543 H         1 <1>         0.023516 
     24 H           0.488995   -3.499403    0.193115 H         1 <1>         0.023516 
     25 H           1.883259   -2.501496    0.681967 H         1 <1>         0.023516 
     26 H          -1.252664   -2.619225   -1.347989 H         1 <1>         0.023516 
     27 H          -1.288364   -0.953163   -1.933389 H         1 <1>         0.023516 
     28 H          -0.028986   -2.072537   -2.513310 H         1 <1>         0.023516 
     29 H           2.334339   -0.532037   -0.813488 H         1 <1>         0.030888 
     30 H           1.763710    0.134142    1.494293 H         1 <1>         0.027666 
     31 H           1.626756    1.666442    0.631494 H         1 <1>         0.027666 
     32 H           0.567472    0.235227   -2.696386 H         1 <1>         0.030097 
     33 H           1.952616    2.212463   -3.185905 H         1 <1>         0.023250 
     34 H           2.924307    0.765711   -2.813147 H         1 <1>         0.023250 
     35 H           2.749668    2.055696   -1.594774 H         1 <1>         0.023250 
     36 H          -0.682622    2.205940   -2.277670 H         1 <1>         0.026820 
     37 H           0.443491    2.773020   -1.046989 H         1 <1>         0.026820 
     38 H          -1.894549    0.883524   -0.682017 H         1 <1>         0.027383 
     39 H          -1.450628    2.330335    0.196776 H         1 <1>         0.027383 
@<TRIPOS>BOND
     1    1    2 2    
     2    1    3 1    
     3    1   16 1    
     4    2   17 1    
     5    2   18 1    
     6    3    4 1    
     7    3   19 1    
     8    3   20 1    
     9    4    5 1    
    10    4   21 1    
    11    4   22 1    
    12    5    6 1    
    13    5    7 1    
    14    5   16 1    
    15    7    8 1    
    16    7    9 1    
    17    7   10 1    
    18    8   23 1    
    19    8   24 1    
    20    8   25 1    
    21    9   26 1    
    22    9   27 1    
    23    9   28 1    
    24   10   11 1    
    25   10   12 1    
    26   10   29 1    
    27   11   16 1    
    28   11   30 1    
    29   11   31 1    
    30   12   13 1    
    31   12   14 1    
    32   12   32 1    
    33   13   33 1    
    34   13   34 1    
    35   13   35 1    
    36   14   15 1    
    37   14   36 1    
    38   14   37 1    
    39   15   16 1    
    40   15   38 1    
    41   15   39 1    
@<TRIPOS>SUBSTRUCTURE
     1 ****        1 TEMP              0 ****  ****    0 ROOT 
@<TRIPOS>NORMAL
@<TRIPOS>FF_PBC
FORCE_FIELD_SETUP_FEATURE Force Field Setup information
v1.0  0 0.000000 0.000000 0.000000 0.000000 0.000000 0.000000 NONE 0 0 0 0 1 0 0 0 0 0 0 0 0
