@<TRIPOS>MOLECULE
MOL006125
   45    45     1     1     0
SMALL
GASTEIGER


@<TRIPOS>ATOM
      1 C           1.297561   -2.381165   -0.294893 C.3       1 <1>        -0.020913 
      2 C           0.661696   -0.975359   -0.113592 C.3       1 <1>         0.010226 
      3 C           1.678805    0.141338   -0.087089 C.2       1 <1>         0.140741 
      4 C           1.177759    1.542244    0.162003 C.3       1 <1>         0.064326 
      5 C           1.355529    2.403220   -1.063246 C.2       1 <1>         0.140433 
      6 C           1.444149    3.900638   -0.881744 C.3       1 <1>         0.006249 
      7 C           0.035361    4.482153   -0.589293 C.3       1 <1>        -0.046372 
      8 C           0.076686    6.011086   -0.319290 C.3       1 <1>        -0.052922 
      9 C          -1.351089    6.569035   -0.067523 C.3       1 <1>        -0.055900 
     10 C          -1.330894    8.086581    0.249605 C.3       1 <1>        -0.065276 
     11 O           2.867628   -0.071648   -0.259539 O.2       1 <1>        -0.296955 
     12 O           1.392268    1.907298   -2.179197 O.2       1 <1>        -0.296966 
     13 C           0.323435   -3.555631   -0.081724 C.ar      1 <1>        -0.044363 
     14 C           0.866809   -4.860792    0.371311 C.ar      1 <1>        -0.025965 
     15 C           0.042805   -5.978329    0.598346 C.ar      1 <1>         0.105659 
     16 C          -1.428492   -5.857342    0.380996 C.ar      1 <1>         0.102451 
     17 C          -1.953589   -4.617783   -0.058182 C.ar      1 <1>        -0.029141 
     18 C          -1.069782   -3.453015   -0.297914 C.ar      1 <1>        -0.055971 
     19 O           0.654595   -7.169195    1.023796 O.3       1 <1>        -0.345341 
     20 C          -0.082108   -8.385982    1.222161 C.3       1 <1>         0.043136 
     21 O          -2.281075   -6.945335    0.605806 O.3       1 <1>        -0.357269 
     22 H           2.107030   -2.480249    0.446539 H         1 <1>         0.031721 
     23 H           1.739000   -2.464915   -1.300574 H         1 <1>         0.031721 
     24 H          -0.026838   -0.757421   -0.944332 H         1 <1>         0.034481 
     25 H           0.101221   -0.960616    0.834968 H         1 <1>         0.034481 
     26 H           0.107835    1.530029    0.416306 H         1 <1>         0.041892 
     27 H           1.738059    1.951848    1.016493 H         1 <1>         0.041892 
     28 H           2.133515    4.134874   -0.055550 H         1 <1>         0.034164 
     29 H           1.850111    4.358964   -1.797953 H         1 <1>         0.034164 
     30 H          -0.618577    4.273116   -1.452249 H         1 <1>         0.026927 
     31 H          -0.390259    3.980760    0.294098 H         1 <1>         0.026927 
     32 H           0.706108    6.206049    0.564230 H         1 <1>         0.026530 
     33 H           0.524636    6.527814   -1.183302 H         1 <1>         0.026530 
     34 H          -1.973479    6.397048   -0.961822 H         1 <1>         0.026265 
     35 H          -1.810941    6.034353    0.780485 H         1 <1>         0.026265 
     36 H          -2.357708    8.449710    0.413524 H         1 <1>         0.022978 
     37 H          -0.742207    8.281156    1.158678 H         1 <1>         0.022978 
     38 H          -0.889331    8.649952   -0.586265 H         1 <1>         0.022978 
     39 H           1.934168   -4.967650    0.534008 H         1 <1>         0.064684 
     40 H          -3.020103   -4.504735   -0.224532 H         1 <1>         0.064412 
     41 H          -1.521435   -2.530166   -0.639581 H         1 <1>         0.062110 
     42 H           0.634905   -9.166499    1.515744 H         1 <1>         0.052871 
     43 H          -0.574923   -8.705338    0.291639 H         1 <1>         0.052871 
     44 H          -0.820239   -8.277649    2.030936 H         1 <1>         0.052871 
     45 H          -3.208403   -6.752455    0.527216 H         1 <1>         0.217422 
@<TRIPOS>BOND
     1    1    2 1    
     2    1   13 1    
     3    1   22 1    
     4    1   23 1    
     5    2    3 1    
     6    2   24 1    
     7    2   25 1    
     8    3    4 1    
     9    3   11 2    
    10    4    5 1    
    11    4   26 1    
    12    4   27 1    
    13    5    6 1    
    14    5   12 2    
    15    6    7 1    
    16    6   28 1    
    17    6   29 1    
    18    7    8 1    
    19    7   30 1    
    20    7   31 1    
    21    8    9 1    
    22    8   32 1    
    23    8   33 1    
    24    9   10 1    
    25    9   34 1    
    26    9   35 1    
    27   10   36 1    
    28   10   37 1    
    29   10   38 1    
    30   13   14 1    
    31   13   18 2    
    32   14   15 2    
    33   14   39 1    
    34   15   16 1    
    35   15   19 1    
    36   16   17 2    
    37   16   21 1    
    38   17   18 1    
    39   17   40 1    
    40   18   41 1    
    41   19   20 1    
    42   20   42 1    
    43   20   43 1    
    44   20   44 1    
    45   21   45 1    
@<TRIPOS>SUBSTRUCTURE
     1 ****        1 TEMP              0 ****  ****    0 ROOT 
@<TRIPOS>NORMAL
@<TRIPOS>FF_PBC
FORCE_FIELD_SETUP_FEATURE Force Field Setup information
v1.0  0 0.000000 0.000000 0.000000 0.000000 0.000000 0.000000 NONE 0 0 0 0 1 0 0 0 0 0 0 0 0
