@<TRIPOS>MOLECULE
MOL004588
   17    17     1     1     0
SMALL
GASTEIGER


@<TRIPOS>ATOM
      1 O           0.183547   -2.393522    0.576146 O.2       1 <1>        -0.297126 
      2 C          -0.754671   -0.461103   -0.488653 C.3       1 <1>         0.014698 
      3 C          -0.798051    0.963776    0.124147 C.3       1 <1>        -0.043384 
      4 C           0.563236    1.118211    0.845857 C.3       1 <1>        -0.045738 
      5 C           0.790194   -0.267998    1.496853 C.3       1 <1>         0.006110 
      6 C           0.089103   -1.178029    0.529371 C.2       1 <1>         0.136155 
      7 C          -0.070078   -0.498987   -1.880166 C.3       1 <1>        -0.055699 
      8 H          -1.764362   -0.901034   -0.553523 H         1 <1>         0.037454 
      9 H          -1.599932    1.011134    0.881039 H         1 <1>         0.027196 
     10 H          -0.978146    1.751138   -0.625358 H         1 <1>         0.027196 
     11 H           1.354574    1.317900    0.104864 H         1 <1>         0.026946 
     12 H           0.564987    1.937008    1.584235 H         1 <1>         0.026946 
     13 H           0.282724   -0.338612    2.471806 H         1 <1>         0.034162 
     14 H           1.857097   -0.514739    1.614519 H         1 <1>         0.034162 
     15 H          -0.018338   -1.539400   -2.237360 H         1 <1>         0.023641 
     16 H          -0.654244    0.090439   -2.603593 H         1 <1>         0.023641 
     17 H           0.952558   -0.095879   -1.840380 H         1 <1>         0.023641 
@<TRIPOS>BOND
     1    6    1 2    
     2    2    3 1    
     3    2    6 1    
     4    2    7 1    
     5    2    8 1    
     6    3    4 1    
     7    3    9 1    
     8    3   10 1    
     9    4    5 1    
    10    4   11 1    
    11    4   12 1    
    12    5    6 1    
    13    5   13 1    
    14    5   14 1    
    15    7   15 1    
    16    7   16 1    
    17    7   17 1    
@<TRIPOS>SUBSTRUCTURE
     1 ****        2 TEMP              0 ****  ****    0 ROOT 
@<TRIPOS>NORMAL
@<TRIPOS>FF_PBC
FORCE_FIELD_SETUP_FEATURE Force Field Setup information
v1.0  0 0.000000 0.000000 0.000000 0.000000 0.000000 0.000000 NONE 0 0 0 0 1 0 0 0 0 0 0 0 0
