@<TRIPOS>MOLECULE
MOL004647
   41    40     1     1     0
SMALL
GASTEIGER


@<TRIPOS>ATOM
      1 C          -5.199859   -3.195632    3.089578 C.3       1 <1>        -0.065276 
      2 C           5.091679    1.900734   -3.386326 C.3       1 <1>         0.033006 
      3 O           6.324892    0.202039   -4.553544 O.3       1 <1>        -0.331267 
      4 C           5.790725    0.565156   -3.385588 C.2       1 <1>         0.259588 
      5 O           5.875127   -0.132000   -2.386430 O.2       1 <1>        -0.265177 
      6 C           4.189979    2.130676   -2.141937 C.3       1 <1>        -0.044061 
      7 C           2.973479    1.163624   -2.119768 C.3       1 <1>        -0.052596 
      8 C           2.081088    1.408952   -0.872239 C.3       1 <1>        -0.053045 
      9 C           0.867036    0.440145   -0.844230 C.3       1 <1>        -0.053057 
     10 C          -0.020749    0.682215    0.407265 C.3       1 <1>        -0.053057 
     11 C          -1.228132   -0.294531    0.443862 C.3       1 <1>        -0.053057 
     12 C          -2.113012   -0.054289    1.698043 C.3       1 <1>        -0.053057 
     13 C          -3.316250   -1.036608    1.740981 C.3       1 <1>        -0.053065 
     14 C          -4.189888   -0.804321    3.005097 C.3       1 <1>        -0.053306 
     15 C          -5.481655   -1.670787    3.029936 C.3       1 <1>        -0.055911 
     16 H          -6.143934   -3.744405    3.235341 H         1 <1>         0.022978 
     17 H          -4.742736   -3.553897    2.155323 H         1 <1>         0.022978 
     18 H          -4.527422   -3.429862    3.929375 H         1 <1>         0.022978 
     19 H           5.876662    2.673134   -3.411697 H         1 <1>         0.036600 
     20 H           4.489845    1.993609   -4.304075 H         1 <1>         0.036600 
     21 H           6.756053   -0.643813   -4.496533 H         1 <1>         0.220208 
     22 H           3.817453    3.168714   -2.161347 H         1 <1>         0.027004 
     23 H           4.791169    2.001960   -1.226704 H         1 <1>         0.027004 
     24 H           3.324694    0.119573   -2.108700 H         1 <1>         0.026540 
     25 H           2.372225    1.313281   -3.031669 H         1 <1>         0.026540 
     26 H           1.716745    2.449444   -0.881960 H         1 <1>         0.026529 
     27 H           2.683975    1.262764    0.039212 H         1 <1>         0.026529 
     28 H           1.231884   -0.600203   -0.835596 H         1 <1>         0.026528 
     29 H           0.262265    0.586250   -1.754400 H         1 <1>         0.026528 
     30 H          -0.391292    1.720501    0.395683 H         1 <1>         0.026528 
     31 H           0.586929    0.542637    1.316511 H         1 <1>         0.026528 
     32 H          -0.855414   -1.332051    0.454163 H         1 <1>         0.026528 
     33 H          -1.837629   -0.155774   -0.464282 H         1 <1>         0.026528 
     34 H          -2.486754    0.982825    1.683898 H         1 <1>         0.026528 
     35 H          -1.502477   -0.188552    2.606258 H         1 <1>         0.026528 
     36 H          -2.924505   -2.065763    1.739856 H         1 <1>         0.026528 
     37 H          -3.933803   -0.896941    0.838677 H         1 <1>         0.026528 
     38 H          -4.491141    0.256437    3.034651 H         1 <1>         0.026520 
     39 H          -3.592094   -1.011371    3.908015 H         1 <1>         0.026520 
     40 H          -6.065522   -1.393324    3.924520 H         1 <1>         0.026265 
     41 H          -6.097436   -1.447845    2.142681 H         1 <1>         0.026265 
@<TRIPOS>BOND
     1   15    1 1    
     2    1   16 1    
     3    1   17 1    
     4    1   18 1    
     5    2    4 1    
     6    6    2 1    
     7    2   19 1    
     8    2   20 1    
     9    4    3 1    
    10    3   21 1    
    11    4    5 2    
    12    7    6 1    
    13    6   22 1    
    14    6   23 1    
    15    8    7 1    
    16    7   24 1    
    17    7   25 1    
    18    9    8 1    
    19    8   26 1    
    20    8   27 1    
    21   10    9 1    
    22    9   28 1    
    23    9   29 1    
    24   11   10 1    
    25   10   30 1    
    26   10   31 1    
    27   12   11 1    
    28   11   32 1    
    29   11   33 1    
    30   13   12 1    
    31   12   34 1    
    32   12   35 1    
    33   14   13 1    
    34   13   36 1    
    35   13   37 1    
    36   14   15 1    
    37   14   38 1    
    38   14   39 1    
    39   15   40 1    
    40   15   41 1    
@<TRIPOS>SUBSTRUCTURE
     1 ****        2 TEMP              0 ****  ****    0 ROOT 
@<TRIPOS>NORMAL
@<TRIPOS>FF_PBC
FORCE_FIELD_SETUP_FEATURE Force Field Setup information
v1.0  0 0.000000 0.000000 0.000000 0.000000 0.000000 0.000000 NONE 0 0 0 0 1 0 0 0 0 0 0 0 0
