@<TRIPOS>MOLECULE
MOL004926
   53    56     1     1     0
SMALL
GASTEIGER


@<TRIPOS>ATOM
      1 C           7.152186    3.141968   -0.212404 C.ar      1 <1>        -0.001314 
      2 C           7.116374    1.802300   -0.284649 C.ar      1 <1>         0.077503 
      3 C           5.811121    1.103245   -0.178775 C.ar      1 <1>        -0.001026 
      4 C           5.915192    3.929847    0.007140 C.ar      1 <1>         0.087967 
      5 C           4.732772    3.281832    0.133793 C.ar      1 <1>         0.077223 
      6 C           4.685412    1.807769    0.003707 C.ar      1 <1>         0.092361 
      7 O           3.462487    1.146004    0.051637 O.3       1 <1>        -0.335586 
      8 C           2.432358    1.717794    0.872586 C.3       1 <1>         0.097162 
      9 C           2.146449    3.202520    0.518092 C.3       1 <1>         0.041564 
     10 C           3.424838    3.989229    0.406000 C.2       1 <1>         0.170906 
     11 O           3.404921    5.204128    0.522289 O.2       1 <1>        -0.291783 
     12 C           1.229023    0.813083    0.571208 C.ar      1 <1>        -0.017820 
     13 C           0.753339    0.699415   -0.829931 C.ar      1 <1>        -0.053652 
     14 C          -0.302725   -0.152051   -1.165107 C.ar      1 <1>        -0.031231 
     15 C          -0.957447   -0.977917   -0.119711 C.ar      1 <1>         0.079482 
     16 C          -0.526398   -0.850577    1.207444 C.ar      1 <1>        -0.031231 
     17 C           0.579406    0.069517    1.567467 C.ar      1 <1>        -0.053652 
     18 O           6.009227    5.323240    0.083947 O.3       1 <1>        -0.358967 
     19 O           8.305436    1.092037   -0.464259 O.3       1 <1>        -0.359667 
     20 O          -1.957390   -1.907684   -0.435671 O.3       1 <1>        -0.312551 
     21 C          -3.025924   -1.624898   -1.361587 C.3       1 <1>         0.193642 
     22 O          -4.026320   -0.733001   -0.836150 O.3       1 <1>        -0.340168 
     23 C          -4.819885   -1.285661    0.237536 C.3       1 <1>         0.113017 
     24 C          -5.445972   -2.671782   -0.093310 C.3       1 <1>         0.111896 
     25 C          -4.371911   -3.644880   -0.647077 C.3       1 <1>         0.114074 
     26 C          -3.639938   -2.966372   -1.835056 C.3       1 <1>         0.134509 
     27 C          -4.087450   -1.243323    1.603989 C.3       1 <1>         0.073015 
     28 O          -3.468987   -4.029771    0.407774 O.3       1 <1>        -0.386401 
     29 O          -4.514266   -2.723601   -2.958637 O.3       1 <1>        -0.384091 
     30 O          -6.512864   -2.485172   -1.048715 O.3       1 <1>        -0.386488 
     31 O          -5.050672   -1.431246    2.660778 O.3       1 <1>        -0.392366 
     32 H           8.099478    3.659062   -0.309577 H         1 <1>         0.066923 
     33 H           5.756976    0.022913   -0.256437 H         1 <1>         0.066932 
     34 H           2.749145    1.636884    1.926206 H         1 <1>         0.065571 
     35 H           1.635137    3.301407   -0.448651 H         1 <1>         0.037400 
     36 H           1.498034    3.641752    1.293818 H         1 <1>         0.037400 
     37 H           1.232429    1.277883   -1.613207 H         1 <1>         0.062190 
     38 H          -0.613861   -0.200950   -2.200591 H         1 <1>         0.064339 
     39 H          -0.990413   -1.446840    1.983481 H         1 <1>         0.064339 
     40 H           0.891985    0.147749    2.603160 H         1 <1>         0.062190 
     41 H           5.172180    5.779092    0.110655 H         1 <1>         0.217342 
     42 H           8.212402    0.153304   -0.346975 H         1 <1>         0.217316 
     43 H          -2.654991   -1.152429   -2.281981 H         1 <1>         0.094159 
     44 H          -5.662722   -0.583103    0.347933 H         1 <1>         0.064668 
     45 H          -5.878593   -3.095654    0.830124 H         1 <1>         0.064673 
     46 H          -4.869782   -4.561186   -1.006912 H         1 <1>         0.064758 
     47 H          -2.812185   -3.614956   -2.171718 H         1 <1>         0.067108 
     48 H          -3.314445   -2.019867    1.664199 H         1 <1>         0.058370 
     49 H          -3.602262   -0.257687    1.705002 H         1 <1>         0.058370 
     50 H          -2.764393   -4.604812    0.124035 H         1 <1>         0.210005 
     51 H          -4.917137   -3.511187   -3.309161 H         1 <1>         0.210111 
     52 H          -6.975439   -3.286796   -1.271780 H         1 <1>         0.210004 
     53 H          -4.665185   -1.397671    3.531250 H         1 <1>         0.209508 
@<TRIPOS>BOND
     1    1    2 2    
     2    1    4 1    
     3    1   32 1    
     4    2    3 1    
     5    2   19 1    
     6    3    6 2    
     7    3   33 1    
     8    4    5 2    
     9    4   18 1    
    10    5    6 1    
    11    5   10 1    
    12    6    7 1    
    13    7    8 1    
    14    8    9 1    
    15    8   12 1    
    16    8   34 1    
    17    9   10 1    
    18    9   35 1    
    19    9   36 1    
    20   10   11 2    
    21   12   13 1    
    22   12   17 2    
    23   13   14 2    
    24   13   37 1    
    25   14   15 1    
    26   14   38 1    
    27   15   16 2    
    28   15   20 1    
    29   16   17 1    
    30   16   39 1    
    31   17   40 1    
    32   18   41 1    
    33   19   42 1    
    34   20   21 1    
    35   21   22 1    
    36   21   26 1    
    37   21   43 1    
    38   22   23 1    
    39   23   24 1    
    40   23   27 1    
    41   23   44 1    
    42   24   25 1    
    43   24   30 1    
    44   24   45 1    
    45   25   26 1    
    46   25   28 1    
    47   25   46 1    
    48   26   29 1    
    49   26   47 1    
    50   27   31 1    
    51   27   48 1    
    52   27   49 1    
    53   28   50 1    
    54   29   51 1    
    55   30   52 1    
    56   31   53 1    
@<TRIPOS>SUBSTRUCTURE
     1 ****        1 TEMP              0 ****  ****    0 ROOT 
@<TRIPOS>NORMAL
@<TRIPOS>FF_PBC
FORCE_FIELD_SETUP_FEATURE Force Field Setup information
v1.0  0 0.000000 0.000000 0.000000 0.000000 0.000000 0.000000 NONE 0 0 0 0 1 0 0 0 0 0 0 0 0
