@<TRIPOS>MOLECULE
MOL005109
   25    26     1     1     0
SMALL
GASTEIGER


@<TRIPOS>ATOM
      1 C           0.842361    0.487350    0.780006 C.2       1 <1>         0.076077 
      2 C           0.027602    1.299697    0.088976 C.2       1 <1>        -0.026380 
      3 C          -1.440540    0.981624   -0.057825 C.ar      1 <1>        -0.009985 
      4 C          -1.909247   -0.255174    0.591917 C.ar      1 <1>         0.054036 
      5 C          -0.859020   -1.051202    1.328143 C.2       1 <1>         0.299076 
      6 O           0.414963   -0.641530    1.376328 O.3       1 <1>        -0.277350 
      7 C          -3.264571   -0.636957    0.508050 C.ar      1 <1>        -0.048290 
      8 C          -4.216172    0.219533   -0.240180 C.ar      1 <1>        -0.060984 
      9 C          -3.766770    1.401661   -0.859422 C.ar      1 <1>        -0.061161 
     10 C          -2.340132    1.796561   -0.767957 C.ar      1 <1>        -0.053775 
     11 O          -1.167255   -2.087441    1.893385 O.2       1 <1>        -0.258816 
     12 C           2.316839    0.745267    0.964278 C.3       1 <1>         0.056279 
     13 C           3.071033   -0.223843    0.178675 C.1       1 <1>        -0.095799 
     14 C           3.691238   -1.025255   -0.470541 C.1       1 <1>        -0.105205 
     15 C           4.440552   -1.997080   -1.256340 C.3       1 <1>        -0.002565 
     16 H           0.414149    2.203859   -0.380076 H         1 <1>         0.064654 
     17 H          -3.610131   -1.547827    0.985673 H         1 <1>         0.062546 
     18 H          -5.260613   -0.067909   -0.308742 H         1 <1>         0.061779 
     19 H          -4.464527    2.027913   -1.406357 H         1 <1>         0.061776 
     20 H          -1.996963    2.707626   -1.246708 H         1 <1>         0.062365 
     21 H           2.583743    0.633705    2.025841 H         1 <1>         0.046633 
     22 H           2.608096    1.753227    0.633077 H         1 <1>         0.046633 
     23 H           3.807536   -2.875390   -1.450751 H         1 <1>         0.036152 
     24 H           4.741129   -1.541924   -2.211477 H         1 <1>         0.036152 
     25 H           5.336500   -2.306189   -0.698176 H         1 <1>         0.036152 
@<TRIPOS>BOND
     1    1    2 2    
     2    1    6 1    
     3    1   12 1    
     4    2    3 1    
     5    2   16 1    
     6    3    4 1    
     7    3   10 2    
     8    4    5 1    
     9    4    7 2    
    10    5    6 1    
    11    5   11 2    
    12    7    8 1    
    13    7   17 1    
    14    8    9 2    
    15    8   18 1    
    16    9   10 1    
    17    9   19 1    
    18   10   20 1    
    19   12   13 1    
    20   12   21 1    
    21   12   22 1    
    22   13   14 3    
    23   14   15 1    
    24   15   23 1    
    25   15   24 1    
    26   15   25 1    
@<TRIPOS>SUBSTRUCTURE
     1 ****        1 TEMP              0 ****  ****    0 ROOT 
@<TRIPOS>NORMAL
@<TRIPOS>FF_PBC
FORCE_FIELD_SETUP_FEATURE Force Field Setup information
v1.0  0 0.000000 0.000000 0.000000 0.000000 0.000000 0.000000 NONE 0 0 0 0 1 0 0 0 0 0 0 0 0
