@<TRIPOS>MOLECULE
MOL000674
   47    46     1     1     0
SMALL
GASTEIGER


@<TRIPOS>ATOM
      1 C          -2.540230    1.263386   -0.000133 C.2       1 <1>        -0.076231 
      2 C          -1.287235    0.776949   -0.001099 C.2       1 <1>        -0.084718 
      3 C          -3.786246    0.393881    0.000065 C.3       1 <1>        -0.028563 
      4 C          -2.793454    2.757031    0.000901 C.3       1 <1>        -0.043778 
      5 C          -0.052233    1.652734   -0.001128 C.3       1 <1>        -0.030838 
      6 C          -3.592533   -1.147947   -0.000158 C.3       1 <1>        -0.030848 
      7 C           1.262639    0.823604    0.000526 C.3       1 <1>        -0.028491 
      8 C          -4.908262   -1.893804    0.000048 C.2       1 <1>        -0.084989 
      9 C           2.607355    1.535609    0.000146 C.2       1 <1>        -0.074085 
     10 C          -5.026514   -3.232445    0.000082 C.2       1 <1>        -0.079608 
     11 C           3.731528    0.800716   -0.000032 C.2       1 <1>        -0.059103 
     12 C           2.663221    3.051537    0.000033 C.3       1 <1>        -0.043707 
     13 C          -6.385518   -3.900420    0.000239 C.3       1 <1>        -0.044049 
     14 C          -3.848824   -4.184584   -0.000039 C.3       1 <1>        -0.044049 
     15 C           5.125841    1.376502   -0.000296 C.3       1 <1>         0.075485 
     16 O           6.070116    0.285819    0.000144 O.3       1 <1>        -0.311276 
     17 C           7.353339    0.676749   -0.000072 C.2       1 <1>         0.259328 
     18 C           8.369442   -0.431439    0.000204 C.3       1 <1>         0.021444 
     19 O           7.701508    1.847318   -0.000440 O.2       1 <1>        -0.265273 
     20 H          -1.109952   -0.296413   -0.001926 H         1 <1>         0.057163 
     21 H          -4.374595    0.659835    0.893453 H         1 <1>         0.031285 
     22 H          -4.375014    0.660008   -0.893009 H         1 <1>         0.031285 
     23 H          -3.868560    2.992836   -0.001583 H         1 <1>         0.027436 
     24 H          -2.354467    3.215964    0.898962 H         1 <1>         0.027436 
     25 H          -2.349980    3.218405   -0.893688 H         1 <1>         0.027436 
     26 H          -0.076205    2.283101   -0.903831 H         1 <1>         0.031044 
     27 H          -0.077496    2.284988    0.900226 H         1 <1>         0.031044 
     28 H          -3.030732   -1.436802   -0.903002 H         1 <1>         0.031044 
     29 H          -3.030150   -1.436932    0.902284 H         1 <1>         0.031044 
     30 H           1.243434    0.175689    0.892400 H         1 <1>         0.031286 
     31 H           1.244177    0.173570   -0.889823 H         1 <1>         0.031286 
     32 H          -5.816388   -1.289970    0.000152 H         1 <1>         0.057155 
     33 H           3.651087   -0.287326    0.000062 H         1 <1>         0.059434 
     34 H           1.694580    3.563520   -0.000826 H         1 <1>         0.027437 
     35 H           3.207415    3.392438   -0.893021 H         1 <1>         0.027437 
     36 H           3.206042    3.392526    0.893889 H         1 <1>         0.027437 
     37 H          -7.221496   -3.184805    0.000353 H         1 <1>         0.027427 
     38 H          -6.481613   -4.534908   -0.893684 H         1 <1>         0.027427 
     39 H          -6.481399   -4.534951    0.894151 H         1 <1>         0.027427 
     40 H          -2.866593   -3.693637   -0.000304 H         1 <1>         0.027427 
     41 H          -3.903006   -4.824973    0.893087 H         1 <1>         0.027427 
     42 H          -3.903353   -4.825201   -0.892982 H         1 <1>         0.027427 
     43 H           5.262612    1.995638   -0.901839 H         1 <1>         0.061016 
     44 H           5.262621    1.996457    0.900689 H         1 <1>         0.061016 
     45 H           7.881633   -1.417887   -0.000104 H         1 <1>         0.033023 
     46 H           9.001275   -0.346377    0.896541 H         1 <1>         0.033023 
     47 H           9.001982   -0.346185   -0.895617 H         1 <1>         0.033023 
@<TRIPOS>BOND
     1    1    2 2    
     2    1    3 1    
     3    1    4 1    
     4    2    5 1    
     5    2   20 1    
     6    3    6 1    
     7    3   21 1    
     8    3   22 1    
     9    4   23 1    
    10    4   24 1    
    11    4   25 1    
    12    5    7 1    
    13    5   26 1    
    14    5   27 1    
    15    6    8 1    
    16    6   28 1    
    17    6   29 1    
    18    7    9 1    
    19    7   30 1    
    20    7   31 1    
    21    8   10 2    
    22    8   32 1    
    23    9   11 2    
    24    9   12 1    
    25   10   13 1    
    26   10   14 1    
    27   11   15 1    
    28   11   33 1    
    29   12   34 1    
    30   12   35 1    
    31   12   36 1    
    32   13   37 1    
    33   13   38 1    
    34   13   39 1    
    35   14   40 1    
    36   14   41 1    
    37   14   42 1    
    38   15   16 1    
    39   15   43 1    
    40   15   44 1    
    41   16   17 1    
    42   17   18 1    
    43   17   19 2    
    44   18   45 1    
    45   18   46 1    
    46   18   47 1    
@<TRIPOS>SUBSTRUCTURE
     1 ****        1 TEMP              0 ****  ****    0 ROOT 
@<TRIPOS>NORMAL
@<TRIPOS>FF_PBC
FORCE_FIELD_SETUP_FEATURE Force Field Setup information
v1.0  0 0.000000 0.000000 0.000000 0.000000 0.000000 0.000000 NONE 0 0 0 0 1 0 0 0 0 0 0 0 0
