@<TRIPOS>MOLECULE
MOL001937
   17    16     1     1     0
SMALL
GASTEIGER


@<TRIPOS>ATOM
      1 C          -2.938702   -0.142264    0.000114 C.3       1 <1>        -0.058566 
      2 C          -1.527326   -0.784846   -0.000121 C.3       1 <1>         0.003296 
      3 C          -0.423657    0.246503    0.000034 C.2       1 <1>         0.136787 
      4 C           1.000369   -0.259731   -0.000138 C.3       1 <1>         0.023737 
      5 C           2.050974    0.826695   -0.000055 C.2       1 <1>        -0.084047 
      6 C           3.357447    0.534611    0.000029 C.2       1 <1>        -0.102233 
      7 O          -0.681855    1.439514    0.000277 O.2       1 <1>        -0.297094 
      8 H          -3.715001   -0.923742    0.000005 H         1 <1>         0.023374 
      9 H          -3.071219    0.485131    0.895661 H         1 <1>         0.023374 
     10 H          -3.071348    0.485508   -0.895152 H         1 <1>         0.023374 
     11 H          -1.420981   -1.419846   -0.894190 H         1 <1>         0.033894 
     12 H          -1.420860   -1.420233    0.893656 H         1 <1>         0.033894 
     13 H           1.147517   -0.884975   -0.894126 H         1 <1>         0.038398 
     14 H           1.147624   -0.885233    0.893653 H         1 <1>         0.038398 
     15 H           1.756714    1.877611   -0.000070 H         1 <1>         0.057044 
     16 H           4.108869    1.324965    0.000088 H         1 <1>         0.053185 
     17 H           3.701132   -0.499671    0.000038 H         1 <1>         0.053185 
@<TRIPOS>BOND
     1    1    2 1    
     2    1    8 1    
     3    1    9 1    
     4    1   10 1    
     5    2    3 1    
     6    2   11 1    
     7    2   12 1    
     8    3    4 1    
     9    3    7 2    
    10    4    5 1    
    11    4   13 1    
    12    4   14 1    
    13    5    6 2    
    14    5   15 1    
    15    6   16 1    
    16    6   17 1    
@<TRIPOS>SUBSTRUCTURE
     1 ****        1 TEMP              0 ****  ****    0 ROOT 
@<TRIPOS>NORMAL
@<TRIPOS>FF_PBC
FORCE_FIELD_SETUP_FEATURE Force Field Setup information
v1.0  0 0.000000 0.000000 0.000000 0.000000 0.000000 0.000000 NONE 0 0 0 0 1 0 0 0 0 0 0 0 0
