@<TRIPOS>MOLECULE
MOL006943
   75    79     1     1     0
SMALL
GASTEIGER


@<TRIPOS>ATOM
      1 C           0.725325    1.684858    6.766445 C.3       1 <1>         0.058306 
      2 C          -0.731181    2.009366    6.322145 C.3       1 <1>        -0.026145 
      3 C          -0.970278    1.734978    4.807481 C.3       1 <1>        -0.041902 
      4 C          -0.532449    0.297697    4.390231 C.3       1 <1>         0.009609 
      5 C           0.999684    0.156922    4.666356 C.3       1 <1>         0.130635 
      6 C           1.296944    0.352734    6.179590 C.3       1 <1>         0.009546 
      7 C          -0.692789    0.001789    2.861116 C.3       1 <1>         0.003480 
      8 C           0.695699    0.000315    2.168515 C.3       1 <1>         0.129306 
      9 O           1.368750   -1.184461    2.665984 O.3       1 <1>        -0.222524 
     10 O           1.424754   -1.146525    4.174242 O.3       1 <1>        -0.222473 
     11 C          -1.758682    0.758139    2.027461 C.3       1 <1>        -0.046067 
     12 C          -1.995450    0.028032    0.658660 C.3       1 <1>        -0.046625 
     13 C          -0.711441   -0.628065    0.027641 C.3       1 <1>        -0.022853 
     14 C           0.524784    0.096216    0.621581 C.3       1 <1>         0.000723 
     15 C          -0.470552   -0.303916   -1.486402 C.3       1 <1>        -0.029257 
     16 C           1.072072   -0.474649   -1.672414 C.3       1 <1>        -0.048812 
     17 C           1.711663   -0.352287   -0.257330 C.3       1 <1>        -0.046388 
     18 C           1.821475    1.154020    3.896441 C.2       1 <1>        -0.050068 
     19 C           1.620430    1.107589    2.587211 C.2       1 <1>        -0.050117 
     20 C          -1.373292   -0.769802    5.177050 C.3       1 <1>        -0.056168 
     21 C          -0.653566   -2.182713    0.230310 C.3       1 <1>        -0.058935 
     22 C          -1.280085   -1.095258   -2.560697 C.3       1 <1>        -0.022394 
     23 C          -2.812856   -0.873950   -2.461910 C.3       1 <1>        -0.058684 
     24 C          -0.833443   -0.627917   -3.930968 C.2       1 <1>        -0.084556 
     25 C          -0.270734   -1.430052   -4.845780 C.2       1 <1>        -0.084590 
     26 C           0.167692   -0.948473   -6.214594 C.3       1 <1>        -0.023397 
     27 C          -1.026134   -0.275531   -6.949756 C.3       1 <1>        -0.058719 
     28 C           1.424406   -0.029935   -6.093143 C.3       1 <1>        -0.040704 
     29 C           2.604611   -0.804787   -5.439571 C.3       1 <1>        -0.062142 
     30 C           1.880032    0.531057   -7.470114 C.3       1 <1>        -0.062142 
     31 O           1.571118    2.831676    6.564486 O.3       1 <1>        -0.391678 
     32 H           0.743578    1.581294    7.865976 H         1 <1>         0.059411 
     33 H          -0.936714    3.072689    6.531318 H         1 <1>         0.029022 
     34 H          -1.446607    1.446101    6.938830 H         1 <1>         0.029022 
     35 H          -2.043713    1.878217    4.609045 H         1 <1>         0.027242 
     36 H          -0.423101    2.479050    4.208091 H         1 <1>         0.027242 
     37 H           2.385835    0.331309    6.346132 H         1 <1>         0.032230 
     38 H           0.887783   -0.507478    6.728738 H         1 <1>         0.032230 
     39 H          -1.054865   -1.029660    2.790710 H         1 <1>         0.033914 
     40 H          -2.717366    0.805231    2.570102 H         1 <1>         0.026930 
     41 H          -1.411817    1.792847    1.875291 H         1 <1>         0.026930 
     42 H          -2.751731   -0.756145    0.821514 H         1 <1>         0.027080 
     43 H          -2.444483    0.764845   -0.025412 H         1 <1>         0.027080 
     44 H           0.377510    1.169244    0.399143 H         1 <1>         0.033820 
     45 H          -0.703710    0.763769   -1.647490 H         1 <1>         0.031168 
     46 H           1.464618    0.296316   -2.357190 H         1 <1>         0.026838 
     47 H           1.320456   -1.457334   -2.104638 H         1 <1>         0.026838 
     48 H           2.088318   -1.322744    0.103708 H         1 <1>         0.026920 
     49 H           2.547432    0.366253   -0.231663 H         1 <1>         0.026920 
     50 H           2.542530    1.852396    4.314268 H         1 <1>         0.059935 
     51 H           2.127734    1.795332    1.909673 H         1 <1>         0.059935 
     52 H          -1.010708   -1.787287    4.961662 H         1 <1>         0.023617 
     53 H          -2.426605   -0.705173    4.862918 H         1 <1>         0.023617 
     54 H          -1.358007   -0.675158    6.267554 H         1 <1>         0.023617 
     55 H          -1.599882   -2.641648   -0.090353 H         1 <1>         0.023526 
     56 H           0.143253   -2.654261   -0.359573 H         1 <1>         0.023526 
     57 H          -0.475937   -2.494222    1.264229 H         1 <1>         0.023526 
     58 H          -1.086843   -2.174402   -2.456730 H         1 <1>         0.034310 
     59 H          -3.316157   -1.383420   -3.298867 H         1 <1>         0.023544 
     60 H          -3.215268   -1.287333   -1.527160 H         1 <1>         0.023544 
     61 H          -3.057240    0.198156   -2.511617 H         1 <1>         0.023544 
     62 H          -0.987935    0.425590   -4.161530 H         1 <1>         0.057182 
     63 H          -0.111347   -2.482299   -4.605104 H         1 <1>         0.057182 
     64 H           0.445293   -1.835270   -6.810912 H         1 <1>         0.034275 
     65 H          -0.820571   -0.170465   -8.026027 H         1 <1>         0.023544 
     66 H          -1.928731   -0.897907   -6.844117 H         1 <1>         0.023544 
     67 H          -1.239069    0.722458   -6.539358 H         1 <1>         0.023544 
     68 H           1.178345    0.828036   -5.443786 H         1 <1>         0.030101 
     69 H           3.479060   -0.146807   -5.317528 H         1 <1>         0.023251 
     70 H           2.330570   -1.185070   -4.445242 H         1 <1>         0.023251 
     71 H           2.896707   -1.658856   -6.069584 H         1 <1>         0.023251 
     72 H           2.816544    1.100177   -7.362886 H         1 <1>         0.023251 
     73 H           1.128150    1.214374   -7.892019 H         1 <1>         0.023251 
     74 H           2.052185   -0.291729   -8.180794 H         1 <1>         0.023251 
     75 H           1.479326    3.246935    5.715479 H         1 <1>         0.209778 
@<TRIPOS>BOND
     1    1    2 1    
     2    1    6 1    
     3    1   31 1    
     4    1   32 1    
     5    2    3 1    
     6    2   33 1    
     7    2   34 1    
     8    3    4 1    
     9    3   35 1    
    10    3   36 1    
    11    4    5 1    
    12    4    7 1    
    13    4   20 1    
    14    5    6 1    
    15    5   10 1    
    16    5   18 1    
    17    6   37 1    
    18    6   38 1    
    19    7    8 1    
    20    7   11 1    
    21    7   39 1    
    22    8    9 1    
    23    8   14 1    
    24    8   19 1    
    25    9   10 1    
    26   11   12 1    
    27   11   40 1    
    28   11   41 1    
    29   12   13 1    
    30   12   42 1    
    31   12   43 1    
    32   13   14 1    
    33   13   15 1    
    34   13   21 1    
    35   14   17 1    
    36   14   44 1    
    37   15   16 1    
    38   15   22 1    
    39   15   45 1    
    40   16   17 1    
    41   16   46 1    
    42   16   47 1    
    43   17   48 1    
    44   17   49 1    
    45   18   19 2    
    46   18   50 1    
    47   19   51 1    
    48   20   52 1    
    49   20   53 1    
    50   20   54 1    
    51   21   55 1    
    52   21   56 1    
    53   21   57 1    
    54   22   23 1    
    55   22   24 1    
    56   22   58 1    
    57   23   59 1    
    58   23   60 1    
    59   23   61 1    
    60   24   25 2    
    61   24   62 1    
    62   25   26 1    
    63   25   63 1    
    64   26   27 1    
    65   26   28 1    
    66   26   64 1    
    67   27   65 1    
    68   27   66 1    
    69   27   67 1    
    70   28   29 1    
    71   28   30 1    
    72   28   68 1    
    73   29   69 1    
    74   29   70 1    
    75   29   71 1    
    76   30   72 1    
    77   30   73 1    
    78   30   74 1    
    79   31   75 1    
@<TRIPOS>SUBSTRUCTURE
     1 ****        1 TEMP              0 ****  ****    0 ROOT 
@<TRIPOS>NORMAL
@<TRIPOS>FF_PBC
FORCE_FIELD_SETUP_FEATURE Force Field Setup information
v1.0  0 0.000000 0.000000 0.000000 0.000000 0.000000 0.000000 NONE 0 0 0 0 1 0 0 0 0 0 0 0 0
