@<TRIPOS>MOLECULE
MOL002279
   25    26     1     1     0
SMALL
GASTEIGER


@<TRIPOS>ATOM
      1 C           1.518192   -1.311411   -0.364516 C.ar      1 <1>         0.213860 
      2 C           0.525233   -0.231574   -0.428147 C.ar      1 <1>         0.057381 
      3 C           0.805089    0.999076   -0.866300 C.ar      1 <1>        -0.018052 
      4 C           2.202990    1.260183   -1.305948 C.ar      1 <1>         0.073565 
      5 C           3.142059    0.252237   -1.250054 C.ar      1 <1>        -0.025691 
      6 C           2.786240   -1.103685   -0.755080 C.ar      1 <1>         0.012705 
      7 N           0.923466   -2.357366    0.100868 N.ar      1 <1>        -0.210345 
      8 C          -0.352197   -2.146594    0.369416 C.ar      1 <1>         0.173967 
      9 C          -0.705493   -0.861709    0.078719 C.ar      1 <1>         0.030659 
     10 C          -2.078251   -0.206204    0.238023 C.3       1 <1>        -0.008947 
     11 C          -2.113968    0.649433    1.528225 C.3       1 <1>        -0.002710 
     12 N          -3.464390    1.222204    1.709124 N.3       1 <1>        -0.329667 
     13 O           2.582892    2.516569   -1.777230 O.3       1 <1>        -0.359808 
     14 H           0.043592    1.770510   -0.898147 H         1 <1>         0.065132 
     15 H           4.157641    0.455780   -1.573833 H         1 <1>         0.064529 
     16 H           3.528274   -1.893924   -0.712803 H         1 <1>         0.068421 
     17 H           1.390602   -3.245263    0.242760 H         1 <1>         0.452859 
     18 H          -1.044038   -2.885668    0.769299 H         1 <1>         0.137875 
     19 H          -2.858743   -0.981906    0.289455 H         1 <1>         0.032753 
     20 H          -2.275084    0.424243   -0.643178 H         1 <1>         0.032753 
     21 H          -1.354513    1.448784    1.476501 H         1 <1>         0.042500 
     22 H          -1.880647    0.003239    2.391473 H         1 <1>         0.042500 
     23 H          -3.532629    1.757075    2.648255 H         1 <1>         0.118224 
     24 H          -3.711701    1.893525    0.896895 H         1 <1>         0.118224 
     25 H           1.877882    3.154346   -1.790277 H         1 <1>         0.217314 
@<TRIPOS>BOND
     1    1    2 1    
     2    1    6 2    
     3    1    7 1    
     4    2    3 2    
     5    2    9 1    
     6    3    4 1    
     7    3   14 1    
     8    4    5 2    
     9    4   13 1    
    10    5    6 1    
    11    5   15 1    
    12    6   16 1    
    13    7    8 1    
    14    7   17 1    
    15    8    9 2    
    16    8   18 1    
    17    9   10 1    
    18   10   11 1    
    19   10   19 1    
    20   10   20 1    
    21   11   12 1    
    22   11   21 1    
    23   11   22 1    
    24   12   23 1    
    25   12   24 1    
    26   13   25 1    
@<TRIPOS>SUBSTRUCTURE
     1 ****        1 TEMP              0 ****  ****    0 ROOT 
@<TRIPOS>NORMAL
@<TRIPOS>FF_PBC
FORCE_FIELD_SETUP_FEATURE Force Field Setup information
v1.0  0 0.000000 0.000000 0.000000 0.000000 0.000000 0.000000 NONE 0 0 0 0 1 0 0 0 0 0 0 0 0
