@<TRIPOS>MOLECULE
MOL001487
   55    54     1     1     0
SMALL
GASTEIGER


@<TRIPOS>ATOM
      1 O           6.012435   -0.719395   -0.113798 O.2       1 <1>        -0.297704 
      2 C          -4.351841   -0.947329   -0.296828 C.3       1 <1>        -0.043879 
      3 C          -3.123894    0.019890   -0.234336 C.3       1 <1>        -0.050451 
      4 C          -1.773723   -0.707776    0.031075 C.3       1 <1>        -0.052574 
      5 C           0.806320   -0.435210    0.293625 C.3       1 <1>        -0.043869 
      6 C          -0.587694    0.273739    0.259883 C.3       1 <1>        -0.050451 
      7 C          -5.675820   -0.122571   -0.380569 C.3       1 <1>        -0.050451 
      8 C          -6.967821   -0.989753   -0.309171 C.3       1 <1>        -0.052582 
      9 C           1.947682    0.630165    0.297697 C.3       1 <1>        -0.050076 
     10 C          -8.255561   -0.128222   -0.174147 C.3       1 <1>        -0.050700 
     11 C          -4.228227   -1.957420   -1.475924 C.3       1 <1>        -0.062415 
     12 C          -9.542444   -0.975992    0.071504 C.3       1 <1>        -0.046721 
     13 C           0.926592   -1.410405    1.501057 C.3       1 <1>        -0.062415 
     14 C           3.371731    0.014381    0.190999 C.3       1 <1>        -0.046143 
     15 C           4.460769    1.094845   -0.042194 C.3       1 <1>         0.005552 
     16 C         -10.775081   -0.043588    0.240233 C.3       1 <1>        -0.062665 
     17 C          -9.814662   -1.996640   -1.069495 C.3       1 <1>        -0.062665 
     18 C           5.843189    0.489670   -0.107294 C.2       1 <1>         0.130322 
     19 C           7.018905    1.428168   -0.161636 C.3       1 <1>        -0.006065 
     20 H          -4.378077   -1.522754    0.645022 H         1 <1>         0.029813 
     21 H          -3.274598    0.738513    0.588640 H         1 <1>         0.026785 
     22 H          -3.054741    0.591384   -1.174379 H         1 <1>         0.026785 
     23 H          -1.506540   -1.337275   -0.830685 H         1 <1>         0.026545 
     24 H          -1.913040   -1.349016    0.914575 H         1 <1>         0.026545 
     25 H           0.910712   -1.025765   -0.633393 H         1 <1>         0.029813 
     26 H          -0.595957    0.995262   -0.573317 H         1 <1>         0.026785 
     27 H          -0.742514    0.835978    1.195754 H         1 <1>         0.026785 
     28 H          -5.696198    0.578146    0.469294 H         1 <1>         0.026785 
     29 H          -5.685308    0.471553   -1.309235 H         1 <1>         0.026785 
     30 H          -7.053408   -1.582977   -1.230175 H         1 <1>         0.026545 
     31 H          -6.901758   -1.673797    0.553145 H         1 <1>         0.026545 
     32 H           1.805842    1.294319   -0.570203 H         1 <1>         0.026796 
     33 H           1.877191    1.244271    1.209902 H         1 <1>         0.026796 
     34 H          -8.130330    0.555813    0.681305 H         1 <1>         0.026777 
     35 H          -8.378289    0.484292   -1.082269 H         1 <1>         0.026777 
     36 H          -5.064126   -2.669469   -1.489545 H         1 <1>         0.023242 
     37 H          -3.319993   -2.569403   -1.399937 H         1 <1>         0.023242 
     38 H          -4.208299   -1.416606   -2.434021 H         1 <1>         0.023242 
     39 H          -9.416779   -1.538082    1.013766 H         1 <1>         0.029548 
     40 H           1.879807   -1.956702    1.486137 H         1 <1>         0.023242 
     41 H           0.140575   -2.177623    1.486915 H         1 <1>         0.023242 
     42 H           0.855376   -0.853050    2.447493 H         1 <1>         0.023242 
     43 H           3.633177   -0.512793    1.121048 H         1 <1>         0.026935 
     44 H           3.401835   -0.704858   -0.643352 H         1 <1>         0.026935 
     45 H           4.429373    1.827402    0.777950 H         1 <1>         0.034143 
     46 H           4.267205    1.622765   -0.988321 H         1 <1>         0.034143 
     47 H         -10.600605    0.689711    1.041983 H         1 <1>         0.023233 
     48 H         -11.669955   -0.628254    0.504730 H         1 <1>         0.023233 
     49 H         -10.975238    0.498625   -0.696059 H         1 <1>         0.023233 
     50 H         -10.793982   -2.479777   -0.927259 H         1 <1>         0.023233 
     51 H          -9.057346   -2.794593   -1.087647 H         1 <1>         0.023233 
     52 H          -9.816519   -1.483276   -2.043144 H         1 <1>         0.023233 
     53 H           7.955000    0.864664   -0.290985 H         1 <1>         0.030578 
     54 H           7.077103    2.000057    0.775150 H         1 <1>         0.030578 
     55 H           6.904745    2.123954   -1.004965 H         1 <1>         0.030578 
@<TRIPOS>BOND
     1   18    1 2    
     2    3    2 1    
     3    2    7 1    
     4    2   11 1    
     5    2   20 1    
     6    4    3 1    
     7    3   21 1    
     8    3   22 1    
     9    6    4 1    
    10    4   23 1    
    11    4   24 1    
    12    5    6 1    
    13    9    5 1    
    14    5   13 1    
    15    5   25 1    
    16    6   26 1    
    17    6   27 1    
    18    7    8 1    
    19    7   28 1    
    20    7   29 1    
    21    8   10 1    
    22    8   30 1    
    23    8   31 1    
    24   14    9 1    
    25    9   32 1    
    26    9   33 1    
    27   10   12 1    
    28   10   34 1    
    29   10   35 1    
    30   11   36 1    
    31   11   37 1    
    32   11   38 1    
    33   12   16 1    
    34   12   17 1    
    35   12   39 1    
    36   13   40 1    
    37   13   41 1    
    38   13   42 1    
    39   15   14 1    
    40   14   43 1    
    41   14   44 1    
    42   15   18 1    
    43   15   45 1    
    44   15   46 1    
    45   16   47 1    
    46   16   48 1    
    47   16   49 1    
    48   17   50 1    
    49   17   51 1    
    50   17   52 1    
    51   18   19 1    
    52   19   53 1    
    53   19   54 1    
    54   19   55 1    
@<TRIPOS>SUBSTRUCTURE
     1 ****        2 TEMP              0 ****  ****    0 ROOT 
@<TRIPOS>NORMAL
@<TRIPOS>FF_PBC
FORCE_FIELD_SETUP_FEATURE Force Field Setup information
v1.0  0 0.000000 0.000000 0.000000 0.000000 0.000000 0.000000 NONE 0 0 0 0 1 0 0 0 0 0 0 0 0
