@<TRIPOS>MOLECULE
MOL008206
   36    38     1     1     0
SMALL
GASTEIGER


@<TRIPOS>ATOM
      1 O          -7.161967   -0.425400    0.005688 O.3       1 <1>        -0.305125 
      2 O          -9.928450   -0.978050   -0.067138 O.3       1 <1>        -0.342923 
      3 O         -11.832910    1.223030   -0.057257 O.3       1 <1>        -0.345170 
      4 O          -8.031330    4.407158    0.110850 O.3       1 <1>        -0.358953 
      5 O          -5.579279    3.241471    0.137524 O.2       1 <1>        -0.287016 
      6 C          -7.595469    1.958397    0.058410 C.ar      1 <1>         0.084493 
      7 C          -8.063385    0.646887    0.013972 C.ar      1 <1>         0.128731 
      8 C          -9.520705    0.367134   -0.025356 C.ar      1 <1>         0.137043 
      9 C          -5.825941   -0.288841    0.040094 C.2       1 <1>         0.093972 
     10 C          -8.534020    3.103630    0.066017 C.ar      1 <1>         0.088490 
     11 C          -6.099442    2.138576    0.097572 C.2       1 <1>         0.193595 
     12 C         -10.451915    1.465806   -0.019430 C.ar      1 <1>         0.110696 
     13 C          -5.268230    0.930055    0.086300 C.2       1 <1>         0.016921 
     14 C          -9.924525    2.855718    0.027486 C.ar      1 <1>         0.001492 
     15 C          -5.025324   -1.579861    0.023859 C.ar      1 <1>         0.005596 
     16 C          -3.600864   -1.648348    0.016521 C.ar      1 <1>        -0.052112 
     17 C          -5.781138   -2.860583    0.013689 C.ar      1 <1>        -0.052112 
     18 C          -2.905417   -2.957882    0.001583 C.ar      1 <1>        -0.061122 
     19 C          -5.117196   -4.097541   -0.001823 C.ar      1 <1>        -0.061122 
     20 C          -3.637875   -4.148390   -0.007621 C.ar      1 <1>        -0.061721 
     21 C         -11.303112   -1.391768   -0.101068 C.3       1 <1>         0.043243 
     22 C         -12.805209    2.280040   -0.082494 C.3       1 <1>         0.043138 
     23 H          -8.686420    5.095718    0.113602 H         1 <1>         0.217342 
     24 H          -4.198907    1.114912    0.118605 H         1 <1>         0.068219 
     25 H         -10.602062    3.699098    0.032948 H         1 <1>         0.067015 
     26 H          -2.984458   -0.760118    0.020671 H         1 <1>         0.062424 
     27 H          -6.866438   -2.852205    0.018112 H         1 <1>         0.062424 
     28 H          -1.820327   -2.990864   -0.002299 H         1 <1>         0.061777 
     29 H          -5.687110   -5.021365   -0.009539 H         1 <1>         0.061777 
     30 H          -3.127679   -5.106388   -0.018897 H         1 <1>         0.061759 
     31 H         -11.316058   -2.491196   -0.125876 H         1 <1>         0.052872 
     32 H         -11.839973   -1.062847    0.801781 H         1 <1>         0.052872 
     33 H         -11.807540   -1.022668   -1.007048 H         1 <1>         0.052872 
     34 H         -13.801162    1.814634   -0.120869 H         1 <1>         0.052871 
     35 H         -12.747154    2.895240    0.828448 H         1 <1>         0.052871 
     36 H         -12.683028    2.909215   -0.977492 H         1 <1>         0.052871 
@<TRIPOS>BOND
     1    7    1 1    
     2    1    9 1    
     3    8    2 1    
     4    2   21 1    
     5   12    3 1    
     6    3   22 1    
     7   10    4 1    
     8    4   23 1    
     9   11    5 2    
    10    7    6 2    
    11    6   10 1    
    12    6   11 1    
    13    8    7 1    
    14    8   12 2    
    15    9   13 2    
    16    9   15 1    
    17   10   14 2    
    18   11   13 1    
    19   12   14 1    
    20   13   24 1    
    21   14   25 1    
    22   15   16 2    
    23   15   17 1    
    24   16   18 1    
    25   16   26 1    
    26   17   19 2    
    27   17   27 1    
    28   18   20 2    
    29   18   28 1    
    30   19   20 1    
    31   19   29 1    
    32   20   30 1    
    33   21   31 1    
    34   21   32 1    
    35   21   33 1    
    36   22   34 1    
    37   22   35 1    
    38   22   36 1    
@<TRIPOS>SUBSTRUCTURE
     1 ****        1 TEMP              0 ****  ****    0 ROOT 
@<TRIPOS>NORMAL
@<TRIPOS>FF_PBC
FORCE_FIELD_SETUP_FEATURE Force Field Setup information
v1.0  0 0.000000 0.000000 0.000000 0.000000 0.000000 0.000000 NONE 0 0 0 0 1 0 0 0 0 0 0 0 0
