@<TRIPOS>MOLECULE
MOL004040
   39    41     1     1     0
SMALL
GASTEIGER


@<TRIPOS>ATOM
      1 O           4.516981   -0.049808   -0.060430 O.3       1 <1>        -0.327727 
      2 O           3.331333    1.299287   -1.368980 O.2       1 <1>        -0.259782 
      3 C          -0.230403   -0.356518    0.478484 C.3       1 <1>         0.000731 
      4 C          -1.121089    0.907620    0.718964 C.3       1 <1>        -0.022182 
      5 C          -1.101518    1.496292   -0.731029 C.3       1 <1>        -0.031353 
      6 C          -0.910997   -1.422785   -0.453447 C.3       1 <1>        -0.033991 
      7 C           0.865704    0.352942   -0.242885 C.2       1 <1>        -0.053496 
      8 C           0.404672    1.471285   -1.136786 C.3       1 <1>        -0.027104 
      9 C           0.573227   -0.959006    1.669720 C.3       1 <1>        -0.038724 
     10 C          -1.920944    0.622077   -1.722084 C.3       1 <1>        -0.049140 
     11 C          -1.338865   -0.813184   -1.823492 C.3       1 <1>        -0.049371 
     12 C           2.034737   -1.113371    1.145300 C.3       1 <1>        -0.021227 
     13 C           2.093249   -0.062159    0.068947 C.2       1 <1>         0.023708 
     14 C          -0.496191    1.967048    1.696389 C.3       1 <1>        -0.058743 
     15 C          -2.538958    0.592320    1.292716 C.3       1 <1>        -0.058743 
     16 C          -0.051279   -2.686305   -0.757989 C.3       1 <1>        -0.061602 
     17 C           3.355690    0.440805   -0.500309 C.2       1 <1>         0.287190 
     18 H          -1.511778    2.520047   -0.766030 H         1 <1>         0.030925 
     19 H          -1.799507   -1.805472    0.071068 H         1 <1>         0.030670 
     20 H           0.910048    2.403870   -0.841616 H         1 <1>         0.031321 
     21 H           0.595835    1.301784   -2.206680 H         1 <1>         0.031321 
     22 H           0.141763   -1.893957    2.056707 H         1 <1>         0.027706 
     23 H           0.607853   -0.258685    2.514188 H         1 <1>         0.027706 
     24 H          -1.889731    1.086839   -2.722460 H         1 <1>         0.026829 
     25 H          -2.982006    0.597081   -1.435945 H         1 <1>         0.026829 
     26 H          -2.074914   -1.469116   -2.318222 H         1 <1>         0.026821 
     27 H          -0.455898   -0.782679   -2.481210 H         1 <1>         0.026821 
     28 H           2.239896   -2.104021    0.716537 H         1 <1>         0.031527 
     29 H           2.777880   -0.920665    1.936179 H         1 <1>         0.031527 
     30 H          -1.013023    2.931683    1.578015 H         1 <1>         0.023534 
     31 H          -0.621432    1.675895    2.749950 H         1 <1>         0.023534 
     32 H           0.575935    2.147594    1.534967 H         1 <1>         0.023534 
     33 H          -2.434773    0.143324    2.292216 H         1 <1>         0.023534 
     34 H          -3.113296    1.526438    1.388820 H         1 <1>         0.023534 
     35 H          -3.147780   -0.099882    0.701357 H         1 <1>         0.023534 
     36 H          -0.597828   -3.354127   -1.442674 H         1 <1>         0.023268 
     37 H           0.893533   -2.406772   -1.247459 H         1 <1>         0.023268 
     38 H           0.169955   -3.271290    0.145830 H         1 <1>         0.023268 
     39 H           5.263720    0.345669   -0.496823 H         1 <1>         0.220545 
@<TRIPOS>BOND
     1   17    1 1    
     2    1   39 1    
     3   17    2 2    
     4    3    4 1    
     5    3    6 1    
     6    7    3 1    
     7    9    3 1    
     8    5    4 1    
     9    4   14 1    
    10    4   15 1    
    11    8    5 1    
    12    5   10 1    
    13    5   18 1    
    14    6   11 1    
    15    6   16 1    
    16    6   19 1    
    17    7    8 1    
    18   13    7 2    
    19    8   20 1    
    20    8   21 1    
    21   12    9 1    
    22    9   22 1    
    23    9   23 1    
    24   10   11 1    
    25   10   24 1    
    26   10   25 1    
    27   11   26 1    
    28   11   27 1    
    29   13   12 1    
    30   12   28 1    
    31   12   29 1    
    32   13   17 1    
    33   14   30 1    
    34   14   31 1    
    35   14   32 1    
    36   15   33 1    
    37   15   34 1    
    38   15   35 1    
    39   16   36 1    
    40   16   37 1    
    41   16   38 1    
@<TRIPOS>SUBSTRUCTURE
     1 ****        3 TEMP              0 ****  ****    0 ROOT 
@<TRIPOS>NORMAL
@<TRIPOS>FF_PBC
FORCE_FIELD_SETUP_FEATURE Force Field Setup information
v1.0  0 0.000000 0.000000 0.000000 0.000000 0.000000 0.000000 NONE 0 0 0 0 1 0 0 0 0 0 0 0 0
