@<TRIPOS>MOLECULE
MOL002496
   23    22     1     1     0
SMALL
GASTEIGER


@<TRIPOS>ATOM
      1 C          -1.317584   -1.772796   -0.000034 C.2       1 <1>        -0.079606 
      2 C          -0.184012   -1.053249   -0.000054 C.2       1 <1>        -0.084890 
      3 C          -1.244789   -3.283642   -0.000012 C.3       1 <1>        -0.044049 
      4 C          -2.708605   -1.175771   -0.000040 C.3       1 <1>        -0.044049 
      5 C          -0.122638    0.456849   -0.000067 C.3       1 <1>        -0.027860 
      6 C           1.337654    0.983825    0.000057 C.3       1 <1>         0.008973 
      7 C           1.404823    2.492098    0.000028 C.2       1 <1>         0.130612 
      8 C           2.769268    3.130647    0.000138 C.3       1 <1>        -0.006054 
      9 O           0.394694    3.177281   -0.000065 O.2       1 <1>        -0.297693 
     10 H           0.760749   -1.599237   -0.000068 H         1 <1>         0.057156 
     11 H          -2.242702   -3.748225    0.000506 H         1 <1>         0.027427 
     12 H          -0.705228   -3.627355   -0.895597 H         1 <1>         0.027427 
     13 H          -0.704328   -3.627341    0.895037 H         1 <1>         0.027427 
     14 H          -2.726280   -0.077632   -0.000241 H         1 <1>         0.027427 
     15 H          -3.248648   -1.521462    0.894256 H         1 <1>         0.027427 
     16 H          -3.248784   -1.521781   -0.894131 H         1 <1>         0.027427 
     17 H          -0.634581    0.839300   -0.897941 H         1 <1>         0.031141 
     18 H          -0.634743    0.839334    0.897699 H         1 <1>         0.031141 
     19 H           1.859905    0.609020    0.894688 H         1 <1>         0.034442 
     20 H           1.860065    0.608983   -0.894463 H         1 <1>         0.034442 
     21 H           2.681395    4.227803   -0.000041 H         1 <1>         0.030578 
     22 H           3.326993    2.821809    0.896647 H         1 <1>         0.030578 
     23 H           3.327273    2.821543   -0.896103 H         1 <1>         0.030578 
@<TRIPOS>BOND
     1    1    2 2    
     2    1    3 1    
     3    1    4 1    
     4    2    5 1    
     5    2   10 1    
     6    3   11 1    
     7    3   12 1    
     8    3   13 1    
     9    4   14 1    
    10    4   15 1    
    11    4   16 1    
    12    5    6 1    
    13    5   17 1    
    14    5   18 1    
    15    6    7 1    
    16    6   19 1    
    17    6   20 1    
    18    7    8 1    
    19    7    9 2    
    20    8   21 1    
    21    8   22 1    
    22    8   23 1    
@<TRIPOS>SUBSTRUCTURE
     1 ****        1 TEMP              0 ****  ****    0 ROOT 
@<TRIPOS>NORMAL
@<TRIPOS>FF_PBC
FORCE_FIELD_SETUP_FEATURE Force Field Setup information
v1.0  0 0.000000 0.000000 0.000000 0.000000 0.000000 0.000000 NONE 0 0 0 0 1 0 0 0 0 0 0 0 0
