@<TRIPOS>MOLECULE
MOL004650
   24    24     1     1     0
SMALL
GASTEIGER


@<TRIPOS>ATOM
      1 C          -0.181203    0.514895   -0.590689 C.ar      1 <1>         0.115992 
      2 C           0.471071   -0.695007   -0.031396 C.ar      1 <1>         0.106929 
      3 C          -1.584515    0.604530   -0.647131 C.ar      1 <1>        -0.027869 
      4 O           0.603112    1.566947   -1.065652 O.3       1 <1>        -0.275319 
      5 C          -0.348902   -1.766444    0.452323 C.ar      1 <1>        -0.018925 
      6 O           1.872691   -0.751911    0.006997 O.3       1 <1>        -0.345304 
      7 C          -2.428003   -0.504785   -0.145263 C.ar      1 <1>        -0.048922 
      8 C           0.511692    2.704467   -0.370764 C.2       1 <1>         0.264072 
      9 C          -1.828181   -1.664673    0.392799 C.ar      1 <1>         0.016778 
     10 C           2.577895   -1.885704    0.536788 C.3       1 <1>         0.043136 
     11 C           1.374823    3.828312   -0.871416 C.3       1 <1>         0.021813 
     12 O          -0.203046    2.833440    0.611132 O.2       1 <1>        -0.264887 
     13 C          -2.683856   -2.801583    0.907797 C.2       1 <1>         0.150281 
     14 O          -3.901510   -2.736148    0.863047 O.2       1 <1>        -0.295699 
     15 H          -2.050406    1.492312   -1.061059 H         1 <1>         0.064447 
     16 H           0.089903   -2.664329    0.867549 H         1 <1>         0.065099 
     17 H          -3.508696   -0.418592   -0.194211 H         1 <1>         0.062522 
     18 H           3.654795   -1.678371    0.452136 H         1 <1>         0.052871 
     19 H           2.354325   -2.795876   -0.040503 H         1 <1>         0.052871 
     20 H           2.337576   -2.039711    1.599901 H         1 <1>         0.052871 
     21 H           1.057496    4.784694   -0.429407 H         1 <1>         0.033035 
     22 H           1.300583    3.899620   -1.966737 H         1 <1>         0.033035 
     23 H           2.420538    3.632535   -0.592589 H         1 <1>         0.033035 
     24 H          -2.227014   -3.697085    1.326920 H         1 <1>         0.108139 
@<TRIPOS>BOND
     1    1    2 1    
     2    1    3 2    
     3    1    4 1    
     4    2    5 2    
     5    2    6 1    
     6    3    7 1    
     7    3   15 1    
     8    4    8 1    
     9    5    9 1    
    10    5   16 1    
    11    6   10 1    
    12    7    9 2    
    13    7   17 1    
    14    8   11 1    
    15    8   12 2    
    16    9   13 1    
    17   10   18 1    
    18   10   19 1    
    19   10   20 1    
    20   11   21 1    
    21   11   22 1    
    22   11   23 1    
    23   13   14 2    
    24   13   24 1    
@<TRIPOS>SUBSTRUCTURE
     1 ****        1 TEMP              0 ****  ****    0 ROOT 
@<TRIPOS>NORMAL
@<TRIPOS>FF_PBC
FORCE_FIELD_SETUP_FEATURE Force Field Setup information
v1.0  0 0.000000 0.000000 0.000000 0.000000 0.000000 0.000000 NONE 0 0 0 0 1 0 0 0 0 0 0 0 0
