@<TRIPOS>MOLECULE
MOL007879
   43    45     1     1     0
SMALL
GASTEIGER


@<TRIPOS>ATOM
      1 C          -1.461159    1.415917    0.020973 C.ar      1 <1>         0.098819 
      2 C          -1.040977    2.830556    0.055232 C.ar      1 <1>         0.082193 
      3 O          -0.508629    0.394196    0.012311 O.3       1 <1>        -0.307710 
      4 C          -2.820352    1.091278   -0.003159 C.ar      1 <1>        -0.000283 
      5 C          -1.995320    3.869882    0.064488 C.ar      1 <1>         0.091551 
      6 C           0.449019    3.052832    0.078341 C.2       1 <1>         0.193517 
      7 C           0.817941    0.613132    0.030377 C.2       1 <1>         0.093945 
      8 C          -3.845136    2.167696    0.005496 C.ar      1 <1>         0.080758 
      9 C          -3.437081    3.509206    0.038415 C.ar      1 <1>        -0.000807 
     10 O          -1.562921    5.201248    0.097500 O.3       1 <1>        -0.347036 
     11 C           1.310073    1.862508    0.061319 C.2       1 <1>         0.016920 
     12 O           0.943489    4.167988    0.109777 O.2       1 <1>        -0.287017 
     13 C           1.687863   -0.632742    0.012708 C.ar      1 <1>         0.008192 
     14 O          -5.217090    1.886942   -0.018359 O.3       1 <1>        -0.347746 
     15 C          -2.494536    6.294306    0.107585 C.3       1 <1>         0.043055 
     16 C           1.006463   -1.951198   -0.043869 C.ar      1 <1>        -0.019515 
     17 C           3.104197   -0.633455    0.046561 C.ar      1 <1>        -0.049511 
     18 C          -5.703579    0.535654   -0.052601 C.3       1 <1>         0.043029 
     19 C           1.705574   -3.165564   -0.065059 C.ar      1 <1>         0.106288 
     20 C           3.861902   -1.907090    0.024201 C.ar      1 <1>        -0.028512 
     21 C           3.196129   -3.157603   -0.030239 C.ar      1 <1>         0.105689 
     22 O           0.950869   -4.348683   -0.119082 O.3       1 <1>        -0.345322 
     23 O           3.912311   -4.364862   -0.051287 O.3       1 <1>        -0.345341 
     24 C           1.551623   -5.652103   -0.150864 C.3       1 <1>         0.043136 
     25 C           5.347431   -4.422776   -0.018377 C.3       1 <1>         0.043135 
     26 H          -3.094856    0.044652   -0.028009 H         1 <1>         0.066955 
     27 H          -4.206661    4.270121    0.044033 H         1 <1>         0.066939 
     28 H           2.371068    2.091409    0.075577 H         1 <1>         0.068219 
     29 H          -1.913336    7.227778    0.134399 H         1 <1>         0.052870 
     30 H          -3.135731    6.259479    1.001672 H         1 <1>         0.052870 
     31 H          -3.111852    6.296451   -0.803816 H         1 <1>         0.052870 
     32 H          -0.076357   -1.997873   -0.070572 H         1 <1>         0.065082 
     33 H           3.676336    0.283189    0.089721 H         1 <1>         0.062505 
     34 H          -6.802731    0.575715   -0.066530 H         1 <1>         0.052870 
     35 H          -5.388618   -0.020867    0.843491 H         1 <1>         0.052870 
     36 H          -5.364422    0.016035   -0.961927 H         1 <1>         0.052870 
     37 H           4.942600   -1.847744    0.050945 H         1 <1>         0.064430 
     38 H           0.738603   -6.391312   -0.193872 H         1 <1>         0.052871 
     39 H           2.138921   -5.840158    0.760725 H         1 <1>         0.052871 
     40 H           2.178020   -5.777658   -1.047063 H         1 <1>         0.052871 
     41 H           5.638187   -5.483297   -0.044043 H         1 <1>         0.052871 
     42 H           5.784557   -3.923337   -0.896596 H         1 <1>         0.052871 
     43 H           5.740942   -3.979002    0.908989 H         1 <1>         0.052871 
@<TRIPOS>BOND
     1    1    2 1    
     2    1    3 1    
     3    1    4 2    
     4    2    5 2    
     5    2    6 1    
     6    3    7 1    
     7    4    8 1    
     8    4   26 1    
     9    5    9 1    
    10    5   10 1    
    11    6   11 1    
    12    6   12 2    
    13    7   11 2    
    14    7   13 1    
    15    8    9 2    
    16    8   14 1    
    17    9   27 1    
    18   10   15 1    
    19   11   28 1    
    20   13   16 1    
    21   13   17 2    
    22   14   18 1    
    23   15   29 1    
    24   15   30 1    
    25   15   31 1    
    26   16   19 2    
    27   16   32 1    
    28   17   20 1    
    29   17   33 1    
    30   18   34 1    
    31   18   35 1    
    32   18   36 1    
    33   19   21 1    
    34   19   22 1    
    35   20   21 2    
    36   20   37 1    
    37   21   23 1    
    38   22   24 1    
    39   23   25 1    
    40   24   38 1    
    41   24   39 1    
    42   24   40 1    
    43   25   41 1    
    44   25   42 1    
    45   25   43 1    
@<TRIPOS>SUBSTRUCTURE
     1 ****        1 TEMP              0 ****  ****    0 ROOT 
@<TRIPOS>NORMAL
@<TRIPOS>FF_PBC
FORCE_FIELD_SETUP_FEATURE Force Field Setup information
v1.0  0 0.000000 0.000000 0.000000 0.000000 0.000000 0.000000 NONE 0 0 0 0 1 0 0 0 0 0 0 0 0
