@<TRIPOS>MOLECULE
MOL000873
   17    17     1     1     0
SMALL
GASTEIGER


@<TRIPOS>ATOM
      1 C           1.192048    0.672397    0.636861 C.2       1 <1>         0.133372 
      2 C           1.375177   -0.697159    0.038041 C.3       1 <1>         0.005821 
      3 C           0.021043   -1.451294    0.060547 C.3       1 <1>        -0.046365 
      4 C          -1.080651   -0.609571   -0.636844 C.3       1 <1>        -0.052289 
      5 C          -1.231169    0.768702    0.060501 C.3       1 <1>        -0.046365 
      6 C           0.114684    1.537517    0.037995 C.3       1 <1>         0.005821 
      7 O           1.883113    1.062217    1.564317 O.2       1 <1>        -0.297411 
      8 H           2.131947   -1.263864    0.604482 H         1 <1>         0.034152 
      9 H           1.731460   -0.584642   -0.997997 H         1 <1>         0.034152 
     10 H          -0.271668   -1.641204    1.106846 H         1 <1>         0.026927 
     11 H           0.128802   -2.424484   -0.447300 H         1 <1>         0.026927 
     12 H          -2.040817   -1.151163   -0.596127 H         1 <1>         0.026549 
     13 H          -0.816946   -0.460847   -1.697097 H         1 <1>         0.026549 
     14 H          -1.545125    0.616456    1.106800 H         1 <1>         0.026927 
     15 H          -2.008302    1.364301   -0.447378 H         1 <1>         0.026927 
     16 H           0.021119    2.478338    0.604404 H         1 <1>         0.034152 
     17 H           0.395288    1.784203   -0.998047 H         1 <1>         0.034152 
@<TRIPOS>BOND
     1    1    2 1    
     2    1    6 1    
     3    1    7 2    
     4    2    3 1    
     5    2    8 1    
     6    2    9 1    
     7    3    4 1    
     8    3   10 1    
     9    3   11 1    
    10    4    5 1    
    11    4   12 1    
    12    4   13 1    
    13    5    6 1    
    14    5   14 1    
    15    5   15 1    
    16    6   16 1    
    17    6   17 1    
@<TRIPOS>SUBSTRUCTURE
     1 ****        1 TEMP              0 ****  ****    0 ROOT 
@<TRIPOS>NORMAL
@<TRIPOS>FF_PBC
FORCE_FIELD_SETUP_FEATURE Force Field Setup information
v1.0  0 0.000000 0.000000 0.000000 0.000000 0.000000 0.000000 NONE 0 0 0 0 1 0 0 0 0 0 0 0 0
