@<TRIPOS>MOLECULE
MOL002650
   25    25     1     1     0
SMALL
GASTEIGER


@<TRIPOS>ATOM
      1 O          -3.216273    2.418132    0.222185 O.3       1 <1>        -0.357268 
      2 O          -0.516319    3.399462    0.098213 O.3       1 <1>        -0.345331 
      3 O           2.185259   -4.712479    0.334097 O.3       1 <1>        -0.390992 
      4 C          -2.147504    1.514997    0.203113 C.ar      1 <1>         0.102471 
      5 C          -0.757261    2.026439    0.134623 C.ar      1 <1>         0.105959 
      6 C          -2.366608    0.119434    0.245802 C.ar      1 <1>        -0.028842 
      7 C           0.324392    1.136727    0.107107 C.ar      1 <1>        -0.022010 
      8 C          -1.220664   -0.821058    0.216871 C.ar      1 <1>        -0.052009 
      9 C           0.107234   -0.329868    0.146901 C.ar      1 <1>        -0.022655 
     10 C           1.323237   -1.231366    0.098604 C.2       1 <1>        -0.056303 
     11 C          -0.539449    3.940737   -1.231462 C.3       1 <1>         0.043136 
     12 C           1.358843   -2.483598    0.578238 C.2       1 <1>        -0.058388 
     13 C           2.594498   -3.343500    0.494147 C.3       1 <1>         0.062691 
     14 H          -4.066992    2.020282    0.368107 H         1 <1>         0.217422 
     15 H           2.917505   -5.321619    0.313635 H         1 <1>         0.209823 
     16 H          -3.375932   -0.275981    0.298172 H         1 <1>         0.064421 
     17 H           1.330857    1.535909    0.058786 H         1 <1>         0.065001 
     18 H          -1.420229   -1.886238    0.241505 H         1 <1>         0.062425 
     19 H           2.220534   -0.809587   -0.355027 H         1 <1>         0.062105 
     20 H          -0.363710    5.023604   -1.158484 H         1 <1>         0.052871 
     21 H           0.255271    3.495247   -1.850195 H         1 <1>         0.052871 
     22 H          -1.515772    3.774474   -1.712953 H         1 <1>         0.052871 
     23 H           0.494069   -2.932010    1.063953 H         1 <1>         0.059478 
     24 H           3.237363   -3.038050   -0.349287 H         1 <1>         0.060128 
     25 H           3.157752   -3.220088    1.433448 H         1 <1>         0.060128 
@<TRIPOS>BOND
     1    4    1 1    
     2    1   14 1    
     3    5    2 1    
     4    2   11 1    
     5   13    3 1    
     6    3   15 1    
     7    5    4 1    
     8    6    4 2    
     9    7    5 2    
    10    8    6 1    
    11    6   16 1    
    12    9    7 1    
    13    7   17 1    
    14    9    8 2    
    15    8   18 1    
    16   10    9 1    
    17   12   10 2    
    18   10   19 1    
    19   11   20 1    
    20   11   21 1    
    21   11   22 1    
    22   12   13 1    
    23   12   23 1    
    24   13   24 1    
    25   13   25 1    
@<TRIPOS>SUBSTRUCTURE
     1 ****        1 TEMP              0 ****  ****    0 ROOT 
@<TRIPOS>NORMAL
@<TRIPOS>FF_PBC
FORCE_FIELD_SETUP_FEATURE Force Field Setup information
v1.0  0 0.000000 0.000000 0.000000 0.000000 0.000000 0.000000 NONE 0 0 0 0 1 0 0 0 0 0 0 0 0
