@<TRIPOS>MOLECULE
MOL006219
   18    18     1     1     0
SMALL
GASTEIGER


@<TRIPOS>ATOM
      1 C           0.499318   -0.071219    0.019279 C.ar      1 <1>         0.046465 
      2 C           1.417760    1.106271   -0.293215 C.2       1 <1>         0.293555 
      3 C           1.185852   -1.349883    0.361870 C.ar      1 <1>        -0.048875 
      4 C          -0.937451   -0.106327    0.025847 C.ar      1 <1>        -0.048875 
      5 O           1.171783    2.388108   -0.634794 O.3       1 <1>        -0.314758 
      6 O           2.614808    0.879163   -0.231323 O.2       1 <1>        -0.259235 
      7 C           0.477539   -2.520942    0.673083 C.ar      1 <1>        -0.061020 
      8 C          -1.680102   -1.347273    0.355731 C.ar      1 <1>        -0.061020 
      9 C          -0.176087    2.853815   -0.760608 C.3       1 <1>         0.046196 
     10 C          -1.000690   -2.520806    0.670286 C.ar      1 <1>        -0.061719 
     11 H           2.269791   -1.401573    0.377711 H         1 <1>         0.062527 
     12 H          -1.549848    0.747440   -0.203337 H         1 <1>         0.062527 
     13 H           1.012844   -3.433331    0.917593 H         1 <1>         0.061778 
     14 H          -2.766008   -1.340624    0.351934 H         1 <1>         0.061778 
     15 H          -0.104081    3.914726   -1.042485 H         1 <1>         0.052972 
     16 H          -0.711484    2.339437   -1.572871 H         1 <1>         0.052972 
     17 H          -0.714307    2.810153    0.198257 H         1 <1>         0.052972 
     18 H          -1.547024   -3.427410    0.911288 H         1 <1>         0.061759 
@<TRIPOS>BOND
     1    1    2 1    
     2    1    3 1    
     3    1    4 2    
     4    2    5 1    
     5    2    6 2    
     6    3    7 2    
     7    3   11 1    
     8    4    8 1    
     9    4   12 1    
    10    5    9 1    
    11    7   10 1    
    12    7   13 1    
    13    8   10 2    
    14    8   14 1    
    15    9   15 1    
    16    9   16 1    
    17    9   17 1    
    18   10   18 1    
@<TRIPOS>SUBSTRUCTURE
     1 ****        1 TEMP              0 ****  ****    0 ROOT 
@<TRIPOS>NORMAL
@<TRIPOS>FF_PBC
FORCE_FIELD_SETUP_FEATURE Force Field Setup information
v1.0  0 0.000000 0.000000 0.000000 0.000000 0.000000 0.000000 NONE 0 0 0 0 1 0 0 0 0 0 0 0 0
