@<TRIPOS>MOLECULE
MOL002475
   39    40     1     1     0
SMALL
GASTEIGER


@<TRIPOS>ATOM
      1 C          -0.367789    0.647031    0.154487 C.3       1 <1>         0.003786 
      2 C          -0.432654   -0.834961    0.521359 C.2       1 <1>        -0.062932 
      3 C           0.579669   -1.726530    0.581911 C.2       1 <1>        -0.072787 
      4 C           2.020483   -1.418304    0.220101 C.3       1 <1>        -0.031715 
      5 C           2.739358   -0.272698    0.978475 C.3       1 <1>        -0.048853 
      6 C           1.884539    0.981188    1.291405 C.3       1 <1>        -0.046760 
      7 C           0.952597    1.499630    0.153616 C.3       1 <1>        -0.024918 
      8 C          -1.870060   -1.259942    0.788270 C.3       1 <1>        -0.027247 
      9 C          -2.556387   -1.235055   -0.599796 C.3       1 <1>        -0.028273 
     10 C          -2.242617    0.012062   -1.396898 C.2       1 <1>        -0.075651 
     11 C          -1.262614    0.858171   -1.048091 C.2       1 <1>        -0.077405 
     12 C           0.319510   -3.173012    0.986823 C.3       1 <1>        -0.043515 
     13 C           0.615335    2.987150    0.523252 C.3       1 <1>        -0.058985 
     14 C           1.646990    1.550801   -1.245345 C.3       1 <1>        -0.058985 
     15 C          -3.108111    0.239202   -2.618454 C.3       1 <1>        -0.043759 
     16 H          -0.931719    1.117861    0.972440 H         1 <1>         0.039341 
     17 H           2.676972   -2.291187    0.359301 H         1 <1>         0.030998 
     18 H           2.030625   -1.269608   -0.862590 H         1 <1>         0.030998 
     19 H           3.101432   -0.661040    1.947623 H         1 <1>         0.026847 
     20 H           3.632841    0.012307    0.394031 H         1 <1>         0.026847 
     21 H           1.260289    0.772379    2.176549 H         1 <1>         0.027080 
     22 H           2.597919    1.768918    1.588868 H         1 <1>         0.027080 
     23 H          -2.033796   -2.245315    1.241978 H         1 <1>         0.031329 
     24 H          -2.372473   -0.547033    1.459963 H         1 <1>         0.031329 
     25 H          -3.646433   -1.325587   -0.465938 H         1 <1>         0.031294 
     26 H          -2.212444   -2.092041   -1.197301 H         1 <1>         0.031294 
     27 H          -1.114926    1.746585   -1.658401 H         1 <1>         0.057767 
     28 H           1.197139   -3.836446    0.953445 H         1 <1>         0.027444 
     29 H          -0.419825   -3.623590    0.305223 H         1 <1>         0.027444 
     30 H          -0.052410   -3.204460    2.023049 H         1 <1>         0.027444 
     31 H          -0.167473    3.393180   -0.134455 H         1 <1>         0.023526 
     32 H           1.505477    3.628529    0.420604 H         1 <1>         0.023526 
     33 H           0.259111    3.080382    1.562330 H         1 <1>         0.023526 
     34 H           2.722458    1.753218   -1.138260 H         1 <1>         0.023526 
     35 H           1.234017    2.344924   -1.884440 H         1 <1>         0.023526 
     36 H           1.510217    0.626680   -1.812639 H         1 <1>         0.023526 
     37 H          -4.157954    0.353436   -2.307646 H         1 <1>         0.027436 
     38 H          -2.818667    1.137388   -3.186571 H         1 <1>         0.027436 
     39 H          -3.030562   -0.630197   -3.289099 H         1 <1>         0.027436 
@<TRIPOS>BOND
     1    1    2 1    
     2    1    7 1    
     3    1   11 1    
     4    1   16 1    
     5    2    3 2    
     6    2    8 1    
     7    3    4 1    
     8    3   12 1    
     9    4    5 1    
    10    4   17 1    
    11    4   18 1    
    12    5    6 1    
    13    5   19 1    
    14    5   20 1    
    15    6    7 1    
    16    6   21 1    
    17    6   22 1    
    18    7   13 1    
    19    7   14 1    
    20    8    9 1    
    21    8   23 1    
    22    8   24 1    
    23    9   10 1    
    24    9   25 1    
    25    9   26 1    
    26   10   11 2    
    27   10   15 1    
    28   11   27 1    
    29   12   28 1    
    30   12   29 1    
    31   12   30 1    
    32   13   31 1    
    33   13   32 1    
    34   13   33 1    
    35   14   34 1    
    36   14   35 1    
    37   14   36 1    
    38   15   37 1    
    39   15   38 1    
    40   15   39 1    
@<TRIPOS>SUBSTRUCTURE
     1 ****        1 TEMP              0 ****  ****    0 ROOT 
@<TRIPOS>NORMAL
@<TRIPOS>FF_PBC
FORCE_FIELD_SETUP_FEATURE Force Field Setup information
v1.0  0 0.000000 0.000000 0.000000 0.000000 0.000000 0.000000 NONE 0 0 0 0 1 0 0 0 0 0 0 0 0
