@<TRIPOS>MOLECULE
MOL002083
   38    40     1     1     0
SMALL
GASTEIGER


@<TRIPOS>ATOM
      1 C          -1.957999    3.045102    0.040358 C.ar      1 <1>         0.081945 
      2 C          -2.362900    1.625791    0.004881 C.ar      1 <1>         0.098804 
      3 C          -0.471030    3.284040    0.065767 C.2       1 <1>         0.193509 
      4 C          -2.927004    4.072062    0.048795 C.ar      1 <1>         0.088313 
      5 O          -1.399432    0.614582   -0.004077 O.3       1 <1>        -0.307710 
      6 C          -3.719858    1.289116   -0.020042 C.ar      1 <1>        -0.000531 
      7 C           0.402862    2.102867    0.053149 C.2       1 <1>         0.016921 
      8 O           0.008140    4.405830    0.095781 O.2       1 <1>        -0.287017 
      9 C          -4.365247    3.701983    0.021955 C.ar      1 <1>        -0.001303 
     10 O          -2.528309    5.409476    0.082008 O.3       1 <1>        -0.358955 
     11 C          -0.075148    0.847486    0.019290 C.2       1 <1>         0.094024 
     12 C          -4.754641    2.354791   -0.011256 C.ar      1 <1>         0.077519 
     13 C           0.804847   -0.391922    0.004725 C.ar      1 <1>         0.010633 
     14 O          -6.114263    2.039380   -0.035593 O.3       1 <1>        -0.359667 
     15 C           0.127114   -1.713558   -0.023201 C.ar      1 <1>        -0.019355 
     16 C           2.225626   -0.379225    0.015409 C.ar      1 <1>        -0.019355 
     17 C           0.833779   -2.920839   -0.038714 C.ar      1 <1>         0.108610 
     18 C           2.996142   -1.650263    0.000007 C.ar      1 <1>         0.108610 
     19 C           2.322687   -2.892030   -0.026245 C.ar      1 <1>         0.132956 
     20 O           0.093134   -4.113055   -0.065722 O.3       1 <1>        -0.345242 
     21 O           4.399473   -1.666652    0.010784 O.3       1 <1>        -0.345242 
     22 O           3.068368   -4.076064   -0.040101 O.3       1 <1>        -0.355384 
     23 C           0.714611   -5.407057   -0.088081 C.3       1 <1>         0.043137 
     24 C           5.179139   -0.459891    0.027884 C.3       1 <1>         0.043137 
     25 H          -4.004679    0.243355   -0.045840 H         1 <1>         0.066947 
     26 H           1.459658    2.349651    0.073960 H         1 <1>         0.068219 
     27 H          -5.129860    4.470562    0.027867 H         1 <1>         0.066923 
     28 H          -3.249653    6.028174    0.083329 H         1 <1>         0.217342 
     29 H          -6.291726    1.105706   -0.055907 H         1 <1>         0.217316 
     30 H          -0.955757   -1.767920   -0.032474 H         1 <1>         0.065084 
     31 H           2.764191    0.553767    0.034680 H         1 <1>         0.065084 
     32 H           4.005598   -3.904359   -0.028859 H         1 <1>         0.217502 
     33 H          -0.086461   -6.160263   -0.109497 H         1 <1>         0.052871 
     34 H           1.331079   -5.534811   -0.990914 H         1 <1>         0.052871 
     35 H           1.317885   -5.572389    0.817534 H         1 <1>         0.052871 
     36 H           6.240792   -0.747799    0.030150 H         1 <1>         0.052871 
     37 H           4.979415    0.128551    0.936598 H         1 <1>         0.052871 
     38 H           4.988222    0.147892   -0.869952 H         1 <1>         0.052871 
@<TRIPOS>BOND
     1    1    2 1    
     2    1    3 1    
     3    1    4 2    
     4    2    5 1    
     5    2    6 2    
     6    3    7 1    
     7    3    8 2    
     8    4    9 1    
     9    4   10 1    
    10    5   11 1    
    11    6   12 1    
    12    6   25 1    
    13    7   11 2    
    14    7   26 1    
    15    9   12 2    
    16    9   27 1    
    17   10   28 1    
    18   11   13 1    
    19   12   14 1    
    20   13   15 1    
    21   13   16 2    
    22   14   29 1    
    23   15   17 2    
    24   15   30 1    
    25   16   18 1    
    26   16   31 1    
    27   17   19 1    
    28   17   20 1    
    29   18   19 2    
    30   18   21 1    
    31   19   22 1    
    32   20   23 1    
    33   21   24 1    
    34   22   32 1    
    35   23   33 1    
    36   23   34 1    
    37   23   35 1    
    38   24   36 1    
    39   24   37 1    
    40   24   38 1    
@<TRIPOS>SUBSTRUCTURE
     1 ****        1 TEMP              0 ****  ****    0 ROOT 
@<TRIPOS>NORMAL
@<TRIPOS>FF_PBC
FORCE_FIELD_SETUP_FEATURE Force Field Setup information
v1.0  0 0.000000 0.000000 0.000000 0.000000 0.000000 0.000000 NONE 0 0 0 0 1 0 0 0 0 0 0 0 0
