@<TRIPOS>MOLECULE
MOL009730
   63    62     1     1     0
SMALL
GASTEIGER


@<TRIPOS>ATOM
      1 O           6.680987    8.363717    0.383992 O.3       1 <1>        -0.318522 
      2 O           8.199188    7.246615    1.495013 O.2       1 <1>        -0.264985 
      3 C           3.142427    0.794972    0.153897 C.3       1 <1>        -0.053048 
      4 C           4.552240    1.408440   -0.058617 C.3       1 <1>        -0.053057 
      5 C           3.114071   -0.748231   -0.029495 C.3       1 <1>        -0.052779 
      6 C           4.509082    2.942170    0.187559 C.3       1 <1>        -0.053045 
      7 C           1.651647   -1.256982    0.090849 C.3       1 <1>        -0.049616 
      8 C           5.876679    3.629908   -0.079099 C.3       1 <1>        -0.052596 
      9 C          -5.308456   -3.236986   -0.000369 C.3       1 <1>        -0.053048 
     10 C          -4.292879   -4.415958    0.002282 C.3       1 <1>        -0.052779 
     11 C          -6.777714   -3.738115    0.000744 C.3       1 <1>        -0.053065 
     12 C          -2.838986   -3.870856   -0.005785 C.3       1 <1>        -0.049616 
     13 C           1.519913   -2.798211   -0.057929 C.3       1 <1>        -0.034761 
     14 C           5.802663    5.147196    0.259734 C.3       1 <1>        -0.044055 
     15 C          -7.779088   -2.549272    0.002192 C.3       1 <1>        -0.053306 
     16 C          -1.759407   -4.988500    0.007127 C.3       1 <1>        -0.034761 
     17 C           0.066771   -3.216742   -0.038525 C.2       1 <1>        -0.087932 
     18 C          -9.250266   -3.047992    0.000986 C.3       1 <1>        -0.055911 
     19 C          -0.322602   -4.500135   -0.001666 C.2       1 <1>        -0.087932 
     20 C           7.104602    5.909795   -0.115504 C.3       1 <1>         0.033189 
     21 C         -10.248282   -1.860995    0.002158 C.3       1 <1>        -0.065276 
     22 C           7.339674    7.213625    0.627865 C.2       1 <1>         0.261905 
     23 C           5.567277    8.346080   -0.527260 C.3       1 <1>         0.045865 
     24 H           2.449347    1.256554   -0.568580 H         1 <1>         0.026529 
     25 H           2.787539    1.039367    1.169120 H         1 <1>         0.026529 
     26 H           5.267013    0.943307    0.638352 H         1 <1>         0.026528 
     27 H           4.893313    1.206263   -1.087507 H         1 <1>         0.026528 
     28 H           3.741052   -1.226350    0.740523 H         1 <1>         0.026538 
     29 H           3.514656   -1.017150   -1.021843 H         1 <1>         0.026538 
     30 H           3.755059    3.386578   -0.482537 H         1 <1>         0.026529 
     31 H           4.198348    3.132755    1.228874 H         1 <1>         0.026529 
     32 H           1.051329   -0.776079   -0.700281 H         1 <1>         0.026822 
     33 H           1.236579   -0.959999    1.068763 H         1 <1>         0.026822 
     34 H           6.652445    3.151596    0.543379 H         1 <1>         0.026540 
     35 H           6.152678    3.497865   -1.138597 H         1 <1>         0.026540 
     36 H          -5.141380   -2.609255    0.890744 H         1 <1>         0.026529 
     37 H          -5.141658   -2.612418   -0.893587 H         1 <1>         0.026529 
     38 H          -4.454748   -5.046257   -0.887598 H         1 <1>         0.026538 
     39 H          -4.450386   -5.037760    0.898999 H         1 <1>         0.026538 
     40 H          -6.948684   -4.359532   -0.893625 H         1 <1>         0.026528 
     41 H          -6.947503   -4.360405    0.894753 H         1 <1>         0.026528 
     42 H          -2.711944   -3.257841   -0.913360 H         1 <1>         0.026822 
     43 H          -2.704514   -3.234989    0.884575 H         1 <1>         0.026822 
     44 H           2.060706   -3.299566    0.759337 H         1 <1>         0.030732 
     45 H           1.958875   -3.117155   -1.015317 H         1 <1>         0.030732 
     46 H           5.617365    5.264175    1.341151 H         1 <1>         0.027004 
     47 H           4.948743    5.565600   -0.289645 H         1 <1>         0.027004 
     48 H          -7.609002   -1.927042    0.896483 H         1 <1>         0.026520 
     49 H          -7.608377   -1.924483   -0.890188 H         1 <1>         0.026520 
     50 H          -1.899668   -5.609606    0.906698 H         1 <1>         0.030732 
     51 H          -1.902681   -5.631314   -0.876808 H         1 <1>         0.030732 
     52 H          -0.666132   -2.413782   -0.062158 H         1 <1>         0.056896 
     53 H          -9.431180   -3.667997   -0.892828 H         1 <1>         0.026265 
     54 H          -9.431662   -3.670602    0.892838 H         1 <1>         0.026265 
     55 H           0.455599   -5.263614    0.020621 H         1 <1>         0.056896 
     56 H           7.952141    5.257475    0.156461 H         1 <1>         0.036606 
     57 H           7.173157    6.058657   -1.202515 H         1 <1>         0.036606 
     58 H         -11.284448   -2.234364    0.001047 H         1 <1>         0.022978 
     59 H         -10.101922   -1.237879    0.897494 H         1 <1>         0.022978 
     60 H         -10.100961   -1.235330   -0.891278 H         1 <1>         0.022978 
     61 H           5.277145    9.398717   -0.659246 H         1 <1>         0.052962 
     62 H           5.803429    7.946700   -1.523069 H         1 <1>         0.052962 
     63 H           4.702260    7.823873   -0.095241 H         1 <1>         0.052962 
@<TRIPOS>BOND
     1   22    1 1    
     2    1   23 1    
     3   22    2 2    
     4    4    3 1    
     5    3    5 1    
     6    3   24 1    
     7    3   25 1    
     8    6    4 1    
     9    4   26 1    
    10    4   27 1    
    11    5    7 1    
    12    5   28 1    
    13    5   29 1    
    14    8    6 1    
    15    6   30 1    
    16    6   31 1    
    17    7   13 1    
    18    7   32 1    
    19    7   33 1    
    20   14    8 1    
    21    8   34 1    
    22    8   35 1    
    23   10    9 1    
    24    9   11 1    
    25    9   36 1    
    26    9   37 1    
    27   12   10 1    
    28   10   38 1    
    29   10   39 1    
    30   11   15 1    
    31   11   40 1    
    32   11   41 1    
    33   16   12 1    
    34   12   42 1    
    35   12   43 1    
    36   13   17 1    
    37   13   44 1    
    38   13   45 1    
    39   20   14 1    
    40   14   46 1    
    41   14   47 1    
    42   15   18 1    
    43   15   48 1    
    44   15   49 1    
    45   19   16 1    
    46   16   50 1    
    47   16   51 1    
    48   17   19 2    
    49   17   52 1    
    50   18   21 1    
    51   18   53 1    
    52   18   54 1    
    53   19   55 1    
    54   20   22 1    
    55   20   56 1    
    56   20   57 1    
    57   21   58 1    
    58   21   59 1    
    59   21   60 1    
    60   23   61 1    
    61   23   62 1    
    62   23   63 1    
@<TRIPOS>SUBSTRUCTURE
     1 ****        3 TEMP              0 ****  ****    0 ROOT 
@<TRIPOS>NORMAL
@<TRIPOS>FF_PBC
FORCE_FIELD_SETUP_FEATURE Force Field Setup information
v1.0  0 0.000000 0.000000 0.000000 0.000000 0.000000 0.000000 NONE 0 0 0 0 1 0 0 0 0 0 0 0 0
