@<TRIPOS>MOLECULE
MOL004811
   50    52     1     1     0
SMALL
GASTEIGER


@<TRIPOS>ATOM
      1 O           1.278727   -2.994056   -0.738513 O.3       1 <1>        -0.343649 
      2 O          -1.120632    0.933145    1.045500 O.3       1 <1>        -0.347194 
      3 O          -3.566281   -3.186214   -0.160826 O.3       1 <1>        -0.359385 
      4 O           4.727314   -1.285391    2.170336 O.3       1 <1>        -0.359468 
      5 O           7.651654    1.762253   -0.403196 O.3       1 <1>        -0.359750 
      6 C           2.649695   -1.207437    0.162509 C.3       1 <1>         0.014615 
      7 C           1.440727   -0.245182    0.249794 C.3       1 <1>        -0.013741 
      8 C           0.123249   -1.020846    0.139593 C.ar      1 <1>         0.013587 
      9 C           2.417317   -2.168504   -1.026598 C.3       1 <1>         0.061401 
     10 C           3.975823   -0.433446    0.027044 C.ar      1 <1>        -0.011920 
     11 C           0.103556   -2.344409   -0.348508 C.ar      1 <1>         0.084283 
     12 C          -1.146365   -0.375430    0.559450 C.ar      1 <1>         0.087343 
     13 C          -2.367418   -1.074685    0.485050 C.ar      1 <1>         0.016389 
     14 C          -1.182870   -3.068435   -0.441081 C.ar      1 <1>        -0.001199 
     15 C          -2.377456   -2.463840   -0.047288 C.ar      1 <1>         0.080952 
     16 C           4.957432   -0.502695    1.035604 C.ar      1 <1>         0.078527 
     17 C           4.235812    0.399650   -1.175343 C.ar      1 <1>        -0.053353 
     18 C          -3.670271   -0.409586    0.958116 C.3       1 <1>        -0.004343 
     19 C           6.228856    0.253931    0.892321 C.ar      1 <1>        -0.001893 
     20 C           5.434325    1.108735   -1.304128 C.ar      1 <1>        -0.031512 
     21 C           6.465447    1.040366   -0.245168 C.ar      1 <1>         0.075035 
     22 C          -4.350106    0.264520   -0.211118 C.2       1 <1>        -0.080815 
     23 C          -1.282527    1.961770    0.054469 C.3       1 <1>         0.043052 
     24 C          -5.095981    1.378852   -0.132993 C.2       1 <1>        -0.079306 
     25 C          -5.688873    2.016719   -1.370694 C.3       1 <1>        -0.044040 
     26 C          -5.398063    2.084854    1.170570 C.3       1 <1>        -0.044040 
     27 H           2.655315   -1.829116    1.073367 H         1 <1>         0.037527 
     28 H           1.466787    0.468944   -0.584758 H         1 <1>         0.032136 
     29 H           1.477521    0.316388    1.196515 H         1 <1>         0.032136 
     30 H           2.230580   -1.619603   -1.962415 H         1 <1>         0.057101 
     31 H           3.290969   -2.823486   -1.170940 H         1 <1>         0.057101 
     32 H          -1.194349   -4.083440   -0.822032 H         1 <1>         0.066929 
     33 H           3.499308    0.468406   -1.967768 H         1 <1>         0.062197 
     34 H          -4.344747   -1.164544    1.388982 H         1 <1>         0.035721 
     35 H          -3.421361    0.302451    1.757698 H         1 <1>         0.035721 
     36 H           6.976979    0.197315    1.674853 H         1 <1>         0.066910 
     37 H           5.619581    1.717042   -2.183287 H         1 <1>         0.064330 
     38 H          -4.206025   -0.201405   -1.186646 H         1 <1>         0.057473 
     39 H          -4.277596   -2.671506   -0.522692 H         1 <1>         0.217328 
     40 H           5.450201   -1.295713    2.787399 H         1 <1>         0.217326 
     41 H          -1.257465    2.934829    0.566101 H         1 <1>         0.052870 
     42 H          -2.245253    1.867704   -0.466792 H         1 <1>         0.052870 
     43 H          -0.472533    1.936371   -0.688659 H         1 <1>         0.052870 
     44 H          -5.368518    1.527934   -2.302881 H         1 <1>         0.027427 
     45 H          -6.786911    1.972136   -1.320459 H         1 <1>         0.027427 
     46 H          -5.378920    3.071507   -1.417275 H         1 <1>         0.027427 
     47 H          -5.497580    1.381218    2.009776 H         1 <1>         0.027427 
     48 H          -4.589692    2.798782    1.389146 H         1 <1>         0.027427 
     49 H          -6.345757    2.640539    1.102037 H         1 <1>         0.027427 
     50 H           8.275377    1.664208    0.307729 H         1 <1>         0.217315 
@<TRIPOS>BOND
     1    9    1 1    
     2    1   11 1    
     3   12    2 1    
     4    2   23 1    
     5   15    3 1    
     6    3   39 1    
     7   16    4 1    
     8    4   40 1    
     9   21    5 1    
    10    5   50 1    
    11    6    7 1    
    12    6    9 1    
    13   10    6 1    
    14    6   27 1    
    15    7    8 1    
    16    7   28 1    
    17    7   29 1    
    18    8   11 2    
    19    8   12 1    
    20    9   30 1    
    21    9   31 1    
    22   16   10 2    
    23   10   17 1    
    24   11   14 1    
    25   12   13 2    
    26   13   15 1    
    27   13   18 1    
    28   14   15 2    
    29   14   32 1    
    30   19   16 1    
    31   17   20 2    
    32   17   33 1    
    33   18   22 1    
    34   18   34 1    
    35   18   35 1    
    36   19   21 2    
    37   19   36 1    
    38   20   21 1    
    39   20   37 1    
    40   22   24 2    
    41   22   38 1    
    42   23   41 1    
    43   23   42 1    
    44   23   43 1    
    45   24   25 1    
    46   24   26 1    
    47   25   44 1    
    48   25   45 1    
    49   25   46 1    
    50   26   47 1    
    51   26   48 1    
    52   26   49 1    
@<TRIPOS>SUBSTRUCTURE
     1 ****        6 TEMP              0 ****  ****    0 ROOT 
@<TRIPOS>NORMAL
@<TRIPOS>FF_PBC
FORCE_FIELD_SETUP_FEATURE Force Field Setup information
v1.0  0 0.000000 0.000000 0.000000 0.000000 0.000000 0.000000 NONE 0 0 0 0 1 0 0 0 0 0 0 0 0
