@<TRIPOS>MOLECULE
MOL011620
   74    78     1     1     0
SMALL
GASTEIGER


@<TRIPOS>ATOM
      1 O           5.103587   -1.480840   -0.857675 O.3       1 <1>        -0.340158 
      2 O           8.534913   -2.212394    0.198974 O.3       1 <1>        -0.346051 
      3 O          10.747502   -2.625459    0.695409 O.3       1 <1>        -0.343081 
      4 O           6.806645   -4.415744    0.651707 O.3       1 <1>        -0.386488 
      5 O           2.976154   -0.816831   -1.180155 O.3       1 <1>        -0.312385 
      6 O           4.203675   -5.474181   -0.065651 O.3       1 <1>        -0.386401 
      7 O           2.089997   -3.581236   -0.209146 O.3       1 <1>        -0.384091 
      8 O          11.671567   -0.513010   -0.983248 O.3       1 <1>        -0.384104 
      9 O          10.612244    1.569511    0.563644 O.3       1 <1>        -0.386402 
     10 O          10.854618    0.087483    3.211585 O.3       1 <1>        -0.386579 
     11 O          -0.952844    1.711064   -2.598235 O.3       1 <1>        -0.335585 
     12 O          -1.037869   -0.701409    1.729877 O.3       1 <1>        -0.358966 
     13 O          -3.039698    0.850967    0.811401 O.2       1 <1>        -0.291783 
     14 O          -2.580548    7.495609   -1.306557 O.3       1 <1>        -0.357268 
     15 O          -0.708216    7.415919    0.774183 O.3       1 <1>        -0.357275 
     16 C           6.114393   -2.195365   -0.116285 C.3       1 <1>         0.113377 
     17 C           5.883302   -3.727836   -0.212162 C.3       1 <1>         0.111906 
     18 C           4.426138   -4.073852    0.191412 C.3       1 <1>         0.114074 
     19 C           3.422582   -3.208291   -0.612738 C.3       1 <1>         0.134509 
     20 C          10.309418   -0.554117   -0.509697 C.3       1 <1>         0.134110 
     21 C           9.883336   -2.029604   -0.287665 C.3       1 <1>         0.187899 
     22 C          10.178165    0.219104    0.826101 C.3       1 <1>         0.113972 
     23 C          11.046402   -0.488500    1.902958 C.3       1 <1>         0.109478 
     24 C           3.765488   -1.711575   -0.379406 C.3       1 <1>         0.193645 
     25 C           7.490773   -1.776221   -0.694131 C.3       1 <1>         0.079556 
     26 C          10.654521   -1.989161    1.985855 C.3       1 <1>         0.087307 
     27 C          11.600303   -2.758015    2.942297 C.3       1 <1>        -0.036060 
     28 C           1.662644   -0.418922   -0.896953 C.ar      1 <1>         0.084385 
     29 C           0.963763    0.432801   -1.886790 C.ar      1 <1>        -0.000657 
     30 C          -0.334034    0.887068   -1.657381 C.ar      1 <1>         0.092370 
     31 C           0.988093   -0.780735    0.298015 C.ar      1 <1>        -0.000944 
     32 C          -2.059407    2.531021   -2.176980 C.3       1 <1>         0.097240 
     33 C          -1.045738    0.495242   -0.420388 C.ar      1 <1>         0.077223 
     34 C          -3.113631    1.693669   -1.410486 C.3       1 <1>         0.041565 
     35 C          -0.399009   -0.320548    0.546331 C.ar      1 <1>         0.087976 
     36 C          -2.455318    1.007249   -0.248661 C.2       1 <1>         0.170906 
     37 C          -1.674612    3.800886   -1.388371 C.ar      1 <1>        -0.015388 
     38 C          -2.301325    5.036180   -1.707019 C.ar      1 <1>        -0.023745 
     39 C          -0.669349    3.788503   -0.294464 C.ar      1 <1>        -0.053499 
     40 C          -1.966135    6.283507   -0.973369 C.ar      1 <1>         0.102525 
     41 C          -0.359650    4.959647    0.413155 C.ar      1 <1>        -0.029068 
     42 C          -1.018107    6.245803    0.073931 C.ar      1 <1>         0.102203 
     43 H           6.097215   -1.889464    0.943895 H         1 <1>         0.064677 
     44 H           6.034097   -4.044660   -1.258466 H         1 <1>         0.064673 
     45 H           4.300571   -3.870519    1.269672 H         1 <1>         0.064758 
     46 H           3.562557   -3.433694   -1.684340 H         1 <1>         0.067108 
     47 H           9.673786   -0.082776   -1.276893 H         1 <1>         0.067095 
     48 H          10.036292   -2.595971   -1.220713 H         1 <1>         0.093739 
     49 H           9.123201    0.213911    1.151471 H         1 <1>         0.064757 
     50 H          12.106242   -0.422301    1.602636 H         1 <1>         0.064584 
     51 H           3.717906   -1.418490    0.681361 H         1 <1>         0.094160 
     52 H           7.482260   -0.678088   -0.767693 H         1 <1>         0.058744 
     53 H           7.606102   -2.198790   -1.705096 H         1 <1>         0.058744 
     54 H           9.629314   -2.070030    2.387964 H         1 <1>         0.062075 
     55 H          11.284129   -3.810710    3.008715 H         1 <1>         0.025536 
     56 H          11.578022   -2.317321    3.950846 H         1 <1>         0.025536 
     57 H          12.632614   -2.727441    2.561319 H         1 <1>         0.025536 
     58 H           6.690774   -5.361255    0.623379 H         1 <1>         0.210004 
     59 H           3.312222   -5.737411    0.147592 H         1 <1>         0.210005 
     60 H           1.417177   -3.198556   -0.763902 H         1 <1>         0.210111 
     61 H          11.985204    0.381251   -1.088535 H         1 <1>         0.210110 
     62 H          10.510494    2.155746    1.305698 H         1 <1>         0.210005 
     63 H          11.155714    0.986617    3.284035 H         1 <1>         0.210002 
     64 H           1.474341    0.712958   -2.801418 H         1 <1>         0.066941 
     65 H          -2.508499    2.854528   -3.130585 H         1 <1>         0.065572 
     66 H           1.451395   -1.393327    1.059615 H         1 <1>         0.066933 
     67 H          -3.940764    2.335882   -1.067855 H         1 <1>         0.037400 
     68 H          -3.519737    0.910829   -2.070444 H         1 <1>         0.037400 
     69 H          -3.042472    5.077648   -2.497945 H         1 <1>         0.064759 
     70 H          -0.155962    2.878097   -0.019693 H         1 <1>         0.062192 
     71 H          -1.908554   -0.328180    1.839286 H         1 <1>         0.217342 
     72 H           0.371577    4.920131    1.214169 H         1 <1>         0.064413 
     73 H          -3.094699    7.461155   -2.104362 H         1 <1>         0.217422 
     74 H          -0.127926    7.277580    1.513228 H         1 <1>         0.217422 
@<TRIPOS>BOND
     1    1   16 1    
     2   24    1 1    
     3    2   21 1    
     4   25    2 1    
     5   21    3 1    
     6    3   26 1    
     7   17    4 1    
     8    4   58 1    
     9    5   24 1    
    10   28    5 1    
    11   18    6 1    
    12    6   59 1    
    13   19    7 1    
    14    7   60 1    
    15   20    8 1    
    16    8   61 1    
    17   22    9 1    
    18    9   62 1    
    19   23   10 1    
    20   10   63 1    
    21   11   30 1    
    22   32   11 1    
    23   35   12 1    
    24   12   71 1    
    25   36   13 2    
    26   40   14 1    
    27   14   73 1    
    28   42   15 1    
    29   15   74 1    
    30   16   17 1    
    31   16   25 1    
    32   16   43 1    
    33   18   17 1    
    34   17   44 1    
    35   19   18 1    
    36   18   45 1    
    37   24   19 1    
    38   19   46 1    
    39   21   20 1    
    40   20   22 1    
    41   20   47 1    
    42   21   48 1    
    43   22   23 1    
    44   22   49 1    
    45   26   23 1    
    46   23   50 1    
    47   24   51 1    
    48   25   52 1    
    49   25   53 1    
    50   26   27 1    
    51   26   54 1    
    52   27   55 1    
    53   27   56 1    
    54   27   57 1    
    55   29   28 1    
    56   28   31 2    
    57   30   29 2    
    58   29   64 1    
    59   30   33 1    
    60   35   31 1    
    61   31   66 1    
    62   32   34 1    
    63   37   32 1    
    64   32   65 1    
    65   33   35 2    
    66   36   33 1    
    67   34   36 1    
    68   34   67 1    
    69   34   68 1    
    70   38   37 2    
    71   37   39 1    
    72   40   38 1    
    73   38   69 1    
    74   39   41 2    
    75   39   70 1    
    76   40   42 2    
    77   41   42 1    
    78   41   72 1    
@<TRIPOS>SUBSTRUCTURE
     1 ****        8 TEMP              0 ****  ****    0 ROOT 
@<TRIPOS>NORMAL
@<TRIPOS>FF_PBC
FORCE_FIELD_SETUP_FEATURE Force Field Setup information
v1.0  0 0.000000 0.000000 0.000000 0.000000 0.000000 0.000000 NONE 0 0 0 0 1 0 0 0 0 0 0 0 0
