@<TRIPOS>MOLECULE
MOL004056
   39    40     1     1     0
SMALL
GASTEIGER


@<TRIPOS>ATOM
      1 C          -0.127363   -0.094371    0.250424 C.3       1 <1>        -0.012816 
      2 C           1.278128   -0.142696   -0.429422 C.3       1 <1>        -0.028460 
      3 C          -0.908177    1.137726   -0.297670 C.3       1 <1>        -0.013345 
      4 C          -2.316363    1.152354    0.355485 C.3       1 <1>        -0.042294 
      5 C           2.059327    1.139376   -0.018828 C.3       1 <1>        -0.030882 
      6 C           2.115275   -1.448739   -0.185818 C.3       1 <1>        -0.043057 
      7 C          -0.106840    2.415066   -0.127035 C.2       1 <1>        -0.072867 
      8 C          -0.966003   -1.353197    0.136356 C.2       1 <1>        -0.081089 
      9 C          -3.109081   -0.094363   -0.109400 C.3       1 <1>        -0.031439 
     10 C           1.226959    2.395161   -0.000100 C.2       1 <1>        -0.084455 
     11 C          -2.297281   -1.362890   -0.028221 C.2       1 <1>        -0.076221 
     12 C           3.515736   -1.382741   -0.862251 C.3       1 <1>        -0.062386 
     13 C           2.287271   -1.839493    1.312050 C.3       1 <1>        -0.062386 
     14 C          -0.865651    3.725662   -0.124853 C.3       1 <1>        -0.043506 
     15 C          -3.087060   -2.649016   -0.146862 C.3       1 <1>        -0.043778 
     16 H           0.032944    0.058494    1.329894 H         1 <1>         0.035161 
     17 H           1.102669   -0.086782   -1.517928 H         1 <1>         0.031203 
     18 H          -1.057275    1.024789   -1.384302 H         1 <1>         0.035135 
     19 H          -2.909552    2.033043    0.064056 H         1 <1>         0.027417 
     20 H          -2.210278    1.156945    1.452580 H         1 <1>         0.027417 
     21 H           2.894785    1.310783   -0.715969 H         1 <1>         0.031034 
     22 H           2.469019    1.037052    0.995680 H         1 <1>         0.031034 
     23 H           1.599263   -2.280556   -0.695200 H         1 <1>         0.029841 
     24 H          -0.482458   -2.323138    0.210632 H         1 <1>         0.057459 
     25 H          -3.418079    0.028444   -1.160276 H         1 <1>         0.031008 
     26 H          -4.018876   -0.184442    0.506455 H         1 <1>         0.031008 
     27 H           1.773971    3.330771    0.129037 H         1 <1>         0.057172 
     28 H           4.179651   -0.678976   -0.338633 H         1 <1>         0.023242 
     29 H           3.998571   -2.372865   -0.841499 H         1 <1>         0.023242 
     30 H           3.425356   -1.069752   -1.914162 H         1 <1>         0.023242 
     31 H           2.885790   -1.098006    1.859223 H         1 <1>         0.023242 
     32 H           2.808771   -2.806817    1.384170 H         1 <1>         0.023242 
     33 H           1.320825   -1.947914    1.823455 H         1 <1>         0.023242 
     34 H          -0.198121    4.598810   -0.180781 H         1 <1>         0.027445 
     35 H          -1.454913    3.817545    0.799524 H         1 <1>         0.027445 
     36 H          -1.537371    3.769694   -0.995316 H         1 <1>         0.027445 
     37 H          -2.452877   -3.548288   -0.154021 H         1 <1>         0.027436 
     38 H          -3.667392   -2.635546   -1.081611 H         1 <1>         0.027436 
     39 H          -3.784503   -2.729826    0.700238 H         1 <1>         0.027436 
@<TRIPOS>BOND
     1    1    2 1    
     2    1    3 1    
     3    1    8 1    
     4    1   16 1    
     5    2    5 1    
     6    2    6 1    
     7    2   17 1    
     8    3    4 1    
     9    3    7 1    
    10    3   18 1    
    11    4    9 1    
    12    4   19 1    
    13    4   20 1    
    14    5   10 1    
    15    5   21 1    
    16    5   22 1    
    17    6   12 1    
    18    6   13 1    
    19    6   23 1    
    20    7   10 2    
    21    7   14 1    
    22    8   11 2    
    23    8   24 1    
    24    9   11 1    
    25    9   25 1    
    26    9   26 1    
    27   10   27 1    
    28   11   15 1    
    29   12   28 1    
    30   12   29 1    
    31   12   30 1    
    32   13   31 1    
    33   13   32 1    
    34   13   33 1    
    35   14   34 1    
    36   14   35 1    
    37   14   36 1    
    38   15   37 1    
    39   15   38 1    
    40   15   39 1    
@<TRIPOS>SUBSTRUCTURE
     1 ****        1 TEMP              0 ****  ****    0 ROOT 
@<TRIPOS>NORMAL
@<TRIPOS>FF_PBC
FORCE_FIELD_SETUP_FEATURE Force Field Setup information
v1.0  0 0.000000 0.000000 0.000000 0.000000 0.000000 0.000000 NONE 0 0 0 0 1 0 0 0 0 0 0 0 0
