@<TRIPOS>MOLECULE
MOL011322
   38    37     1     1     0
SMALL
GASTEIGER


@<TRIPOS>ATOM
      1 O           3.038096   -0.271498    0.227252 O.3       1 <1>        -0.314929 
      2 O          -3.036736    0.273037    0.215803 O.3       1 <1>        -0.314929 
      3 O           1.837242    1.638373    0.147282 O.2       1 <1>        -0.264962 
      4 O          -1.836523   -1.638036    0.157920 O.2       1 <1>        -0.264962 
      5 C           5.471294   -0.363304    0.279386 C.3       1 <1>        -0.022633 
      6 C          -5.469558    0.366441    0.280220 C.3       1 <1>        -0.022633 
      7 C           4.220085    0.555238    0.234140 C.3       1 <1>         0.059373 
      8 C          -4.218914   -0.553069    0.237181 C.3       1 <1>         0.059373 
      9 C           5.513814   -1.292804   -0.964700 C.3       1 <1>        -0.060562 
     10 C           6.772067    0.481470    0.369704 C.3       1 <1>        -0.060562 
     11 C          -6.770150   -0.476817    0.386171 C.3       1 <1>        -0.060562 
     12 C          -5.518805    1.283974   -0.972441 C.3       1 <1>        -0.060562 
     13 C           0.646202   -0.429457    0.179458 C.3       1 <1>         0.042158 
     14 C          -0.644973    0.429718    0.159423 C.3       1 <1>         0.042158 
     15 C           1.889784    0.418662    0.182675 C.2       1 <1>         0.262654 
     16 C          -1.888756   -0.417976    0.177304 C.2       1 <1>         0.262654 
     17 H           5.399079   -0.994177    1.183252 H         1 <1>         0.031772 
     18 H          -5.391984    1.005963    1.177466 H         1 <1>         0.031772 
     19 H           4.216517    1.209530    1.122570 H         1 <1>         0.056838 
     20 H           4.262523    1.182807   -0.671814 H         1 <1>         0.056838 
     21 H          -4.211315   -1.198375    1.132145 H         1 <1>         0.056838 
     22 H          -4.265968   -1.189758   -0.662197 H         1 <1>         0.056838 
     23 H           5.577926   -0.697468   -1.888351 H         1 <1>         0.023304 
     24 H           6.388776   -1.959527   -0.915856 H         1 <1>         0.023304 
     25 H           4.607757   -1.916666   -1.012407 H         1 <1>         0.023304 
     26 H           7.653407   -0.176261    0.426492 H         1 <1>         0.023304 
     27 H           6.757691    1.117018    1.268874 H         1 <1>         0.023304 
     28 H           6.873782    1.127993   -0.515492 H         1 <1>         0.023304 
     29 H          -6.877406   -1.131533   -0.492339 H         1 <1>         0.023304 
     30 H          -6.750734   -1.103942    1.291123 H         1 <1>         0.023304 
     31 H          -7.650805    0.181881    0.442051 H         1 <1>         0.023304 
     32 H          -4.612687    1.906771   -1.031446 H         1 <1>         0.023304 
     33 H          -5.588720    0.679861   -1.889979 H         1 <1>         0.023304 
     34 H          -6.393071    1.951673   -0.924793 H         1 <1>         0.023304 
     35 H           0.674816   -1.081620   -0.707649 H         1 <1>         0.037096 
     36 H           0.657929   -1.061796    1.081238 H         1 <1>         0.037096 
     37 H          -0.665449    1.091153    1.039952 H         1 <1>         0.037096 
     38 H          -0.664735    1.052617   -0.748724 H         1 <1>         0.037096 
@<TRIPOS>BOND
     1    1    7 1    
     2   15    1 1    
     3    2    8 1    
     4   16    2 1    
     5   15    3 2    
     6   16    4 2    
     7    7    5 1    
     8    5    9 1    
     9    5   10 1    
    10    5   17 1    
    11    8    6 1    
    12    6   11 1    
    13    6   12 1    
    14    6   18 1    
    15    7   19 1    
    16    7   20 1    
    17    8   21 1    
    18    8   22 1    
    19    9   23 1    
    20    9   24 1    
    21    9   25 1    
    22   10   26 1    
    23   10   27 1    
    24   10   28 1    
    25   11   29 1    
    26   11   30 1    
    27   11   31 1    
    28   12   32 1    
    29   12   33 1    
    30   12   34 1    
    31   14   13 1    
    32   13   15 1    
    33   13   35 1    
    34   13   36 1    
    35   14   16 1    
    36   14   37 1    
    37   14   38 1    
@<TRIPOS>SUBSTRUCTURE
     1 ****       13 TEMP              0 ****  ****    0 ROOT 
@<TRIPOS>NORMAL
@<TRIPOS>FF_PBC
FORCE_FIELD_SETUP_FEATURE Force Field Setup information
v1.0  0 0.000000 0.000000 0.000000 0.000000 0.000000 0.000000 NONE 0 0 0 0 1 0 0 0 0 0 0 0 0
