@<TRIPOS>MOLECULE
MOL000943
   42    43     1     1     0
SMALL
GASTEIGER


@<TRIPOS>ATOM
      1 C          -3.161824    1.415018   -0.346072 C.3       1 <1>        -0.048582 
      2 C          -3.039565   -0.127421   -0.272815 C.3       1 <1>        -0.031707 
      3 C          -1.677342   -0.706156   -0.599441 C.2       1 <1>        -0.072842 
      4 C          -0.587516    0.056929   -0.810666 C.2       1 <1>        -0.064300 
      5 C          -0.644802    1.575882   -0.816703 C.3       1 <1>        -0.010792 
      6 C          -1.822891    2.054655    0.086443 C.3       1 <1>        -0.043625 
      7 C           0.797207   -0.510369   -1.051356 C.3       1 <1>        -0.025553 
      8 C           1.747945   -0.170618    0.146349 C.3       1 <1>        -0.008925 
      9 C           1.319875    1.189965    0.785690 C.3       1 <1>        -0.046550 
     10 C           0.704181    2.148642   -0.266200 C.3       1 <1>        -0.043562 
     11 C          -1.633389   -2.220595   -0.650367 C.3       1 <1>        -0.043516 
     12 C           1.875983   -1.291066    1.240790 C.3       1 <1>         0.063617 
     13 C           2.463602   -2.619028    0.668095 C.3       1 <1>        -0.036069 
     14 O           0.564135   -1.539693    1.773145 O.3       1 <1>        -0.388835 
     15 C           2.802230   -0.822507    2.406113 C.3       1 <1>        -0.036069 
     16 C          -0.842831    2.064230   -2.286498 C.3       1 <1>        -0.055834 
     17 H          -3.974711    1.757665    0.317400 H         1 <1>         0.026856 
     18 H          -3.434695    1.735389   -1.362271 H         1 <1>         0.026856 
     19 H          -3.811727   -0.575724   -0.919410 H         1 <1>         0.030998 
     20 H          -3.243960   -0.436326    0.765726 H         1 <1>         0.030998 
     21 H          -1.918881    3.151958    0.044110 H         1 <1>         0.027366 
     22 H          -1.638488    1.773476    1.134877 H         1 <1>         0.027366 
     23 H           0.802176   -1.573932   -1.301533 H         1 <1>         0.031381 
     24 H           1.176806   -0.021168   -1.961472 H         1 <1>         0.031381 
     25 H           2.757779   -0.037783   -0.280625 H         1 <1>         0.033130 
     26 H           0.571693    1.017935    1.573861 H         1 <1>         0.026918 
     27 H           2.190479    1.686057    1.247255 H         1 <1>         0.026918 
     28 H           1.459816    2.269057   -1.058922 H         1 <1>         0.027367 
     29 H           0.544406    3.147435    0.171949 H         1 <1>         0.027367 
     30 H          -2.591852   -2.670886   -0.350331 H         1 <1>         0.027444 
     31 H          -1.420104   -2.545746   -1.679639 H         1 <1>         0.027444 
     32 H          -0.866656   -2.622942    0.024940 H         1 <1>         0.027444 
     33 H           1.765877   -3.130578   -0.006855 H         1 <1>         0.025721 
     34 H           3.401619   -2.422458    0.127300 H         1 <1>         0.025721 
     35 H           2.680564   -3.330237    1.479403 H         1 <1>         0.025721 
     36 H           0.551872   -2.204200    2.453496 H         1 <1>         0.210147 
     37 H           3.781463   -0.506709    2.015383 H         1 <1>         0.025721 
     38 H           2.357286    0.011523    2.966789 H         1 <1>         0.025721 
     39 H           2.967263   -1.633990    3.130933 H         1 <1>         0.025721 
     40 H          -1.046289    3.145680   -2.304054 H         1 <1>         0.023811 
     41 H           0.048455    1.882203   -2.904251 H         1 <1>         0.023811 
     42 H          -1.670146    1.538674   -2.783256 H         1 <1>         0.023811 
@<TRIPOS>BOND
     1    1    2 1    
     2    1    6 1    
     3    1   17 1    
     4    1   18 1    
     5    2    3 1    
     6    2   19 1    
     7    2   20 1    
     8    3    4 2    
     9    3   11 1    
    10    4    5 1    
    11    4    7 1    
    12    5    6 1    
    13    5   10 1    
    14    5   16 1    
    15    6   21 1    
    16    6   22 1    
    17    7    8 1    
    18    7   23 1    
    19    7   24 1    
    20    8    9 1    
    21    8   12 1    
    22    8   25 1    
    23    9   10 1    
    24    9   26 1    
    25    9   27 1    
    26   10   28 1    
    27   10   29 1    
    28   11   30 1    
    29   11   31 1    
    30   11   32 1    
    31   12   13 1    
    32   12   14 1    
    33   12   15 1    
    34   13   33 1    
    35   13   34 1    
    36   13   35 1    
    37   14   36 1    
    38   15   37 1    
    39   15   38 1    
    40   15   39 1    
    41   16   40 1    
    42   16   41 1    
    43   16   42 1    
@<TRIPOS>SUBSTRUCTURE
     1 ****        1 TEMP              0 ****  ****    0 ROOT 
@<TRIPOS>NORMAL
@<TRIPOS>FF_PBC
FORCE_FIELD_SETUP_FEATURE Force Field Setup information
v1.0  0 0.000000 0.000000 0.000000 0.000000 0.000000 0.000000 NONE 0 0 0 0 1 0 0 0 0 0 0 0 0
