@<TRIPOS>MOLECULE
MOL000968
   39    39     1     1     0
SMALL
GASTEIGER


@<TRIPOS>ATOM
      1 C           0.966612   -2.491545    0.941867 C.2       1 <1>        -0.099165 
      2 C           1.000064   -1.331851    0.269685 C.2       1 <1>        -0.072936 
      3 C          -0.257745   -0.492061    0.156538 C.3       1 <1>        -0.028281 
      4 C          -1.241745   -1.108804   -0.871639 C.3       1 <1>        -0.030838 
      5 C          -2.492887   -0.263094   -0.952391 C.2       1 <1>        -0.084989 
      6 C          -3.647915   -0.518964   -0.316085 C.2       1 <1>        -0.079608 
      7 C          -4.858125    0.372910   -0.493941 C.3       1 <1>        -0.044049 
      8 C           2.294308   -0.851160   -0.375048 C.3       1 <1>        -0.016427 
      9 C           2.200034    0.199069   -1.518258 C.3       1 <1>        -0.027983 
     10 C           2.067540    1.622792   -1.032635 C.2       1 <1>        -0.084465 
     11 C           2.260416    1.993777    0.241892 C.2       1 <1>        -0.076493 
     12 C           2.649302    1.003996    1.315626 C.3       1 <1>        -0.031457 
     13 C           3.244603   -0.292433    0.713681 C.3       1 <1>        -0.042558 
     14 C           2.093860    3.426735    0.694770 C.3       1 <1>        -0.043787 
     15 C          -3.836191   -1.698707    0.612894 C.3       1 <1>        -0.044049 
     16 H           1.852647   -3.117401    1.044145 H         1 <1>         0.053449 
     17 H           0.050084   -2.848660    1.410830 H         1 <1>         0.053449 
     18 H          -0.752422   -0.473121    1.140951 H         1 <1>         0.031295 
     19 H          -0.056755    0.553756   -0.106874 H         1 <1>         0.031295 
     20 H          -0.776014   -1.139435   -1.868525 H         1 <1>         0.031044 
     21 H          -1.471226   -2.150925   -0.603615 H         1 <1>         0.031044 
     22 H          -2.419885    0.622164   -1.585959 H         1 <1>         0.057155 
     23 H          -4.699650    1.172494   -1.233338 H         1 <1>         0.027427 
     24 H          -5.712027   -0.235417   -0.828535 H         1 <1>         0.027427 
     25 H          -5.112691    0.842774    0.468039 H         1 <1>         0.027427 
     26 H           2.765906   -1.749039   -0.813189 H         1 <1>         0.034857 
     27 H           1.372098   -0.057427   -2.195036 H         1 <1>         0.031313 
     28 H           3.129152    0.176654   -2.111588 H         1 <1>         0.031313 
     29 H           1.799689    2.370279   -1.780580 H         1 <1>         0.057172 
     30 H           3.400631    1.450599    1.987195 H         1 <1>         0.031008 
     31 H           1.754403    0.772269    1.914181 H         1 <1>         0.031008 
     32 H           3.409622   -1.035755    1.511199 H         1 <1>         0.027409 
     33 H           4.222758   -0.061283    0.258929 H         1 <1>         0.027409 
     34 H           1.362664    3.466060    1.516204 H         1 <1>         0.027436 
     35 H           1.740845    4.088868   -0.110198 H         1 <1>         0.027436 
     36 H           3.057724    3.812495    1.059270 H         1 <1>         0.027436 
     37 H          -4.673870   -1.526860    1.305802 H         1 <1>         0.027427 
     38 H          -4.058130   -2.596320    0.016801 H         1 <1>         0.027427 
     39 H          -2.942640   -1.883195    1.226620 H         1 <1>         0.027427 
@<TRIPOS>BOND
     1    1    2 2    
     2    1   16 1    
     3    1   17 1    
     4    2    3 1    
     5    2    8 1    
     6    3    4 1    
     7    3   18 1    
     8    3   19 1    
     9    4    5 1    
    10    4   20 1    
    11    4   21 1    
    12    5    6 2    
    13    5   22 1    
    14    6    7 1    
    15    6   15 1    
    16    7   23 1    
    17    7   24 1    
    18    7   25 1    
    19    8    9 1    
    20    8   13 1    
    21    8   26 1    
    22    9   10 1    
    23    9   27 1    
    24    9   28 1    
    25   10   11 2    
    26   10   29 1    
    27   11   12 1    
    28   11   14 1    
    29   12   13 1    
    30   12   30 1    
    31   12   31 1    
    32   13   32 1    
    33   13   33 1    
    34   14   34 1    
    35   14   35 1    
    36   14   36 1    
    37   15   37 1    
    38   15   38 1    
    39   15   39 1    
@<TRIPOS>SUBSTRUCTURE
     1 ****        1 TEMP              0 ****  ****    0 ROOT 
@<TRIPOS>NORMAL
@<TRIPOS>FF_PBC
FORCE_FIELD_SETUP_FEATURE Force Field Setup information
v1.0  0 0.000000 0.000000 0.000000 0.000000 0.000000 0.000000 NONE 0 0 0 0 1 0 0 0 0 0 0 0 0
