@<TRIPOS>MOLECULE
MOL004997
  117   123     1     1     0
SMALL
GASTEIGER


@<TRIPOS>ATOM
      1 C          -1.883481   -0.277435   -4.382291 C.3       1 <1>        -0.031522 
      2 C          -2.169538   -1.591487   -3.597515 C.3       1 <1>        -0.012608 
      3 C          -3.572955   -2.238752   -3.818940 C.3       1 <1>        -0.025442 
      4 C          -3.929959   -2.213265   -5.342599 C.3       1 <1>        -0.046118 
      5 C          -3.635533   -0.871784   -6.074021 C.3       1 <1>        -0.038057 
      6 C          -2.159629   -0.394516   -5.904729 C.3       1 <1>         0.053721 
      7 C          -1.978897   -1.603837   -2.084596 C.2       1 <1>        -0.056185 
      8 C          -2.841801   -0.693503   -1.196499 C.3       1 <1>        -0.004332 
      9 C          -4.250238   -1.346414   -1.417648 C.3       1 <1>        -0.042869 
     10 C          -4.643355   -1.516173   -2.934437 C.3       1 <1>        -0.046277 
     11 C          -1.125448   -2.505513   -1.571155 C.2       1 <1>        -0.018839 
     12 C          -0.990573   -2.814442   -0.142884 C.2       1 <1>         0.160199 
     13 C          -1.782384   -2.061324    0.893763 C.3       1 <1>         0.033332 
     14 C          -2.216591   -0.677777    0.283079 C.3       1 <1>        -0.012656 
     15 C          -1.096764   -2.071919    2.347117 C.3       1 <1>        -0.018250 
     16 C          -1.539779   -0.838504    3.248623 C.3       1 <1>        -0.027436 
     17 C          -3.000184   -0.466518    2.849856 C.3       1 <1>        -0.048587 
     18 C          -3.160603   -0.017217    1.358519 C.3       1 <1>        -0.045876 
     19 C           0.471854   -2.244583    2.354466 C.3       1 <1>        -0.044320 
     20 C           1.180053   -1.500633    3.528616 C.3       1 <1>        -0.025459 
     21 C           0.958562    0.020865    3.337809 C.3       1 <1>         0.067175 
     22 C          -0.549821    0.367376    3.648557 C.3       1 <1>        -0.005219 
     23 C          -1.150495   -1.308078   -6.571037 C.2       1 <1>         0.265560 
     24 C          -1.990474    1.008693   -6.571003 C.3       1 <1>        -0.050480 
     25 O           0.126709   -0.935603   -6.455468 O.3       1 <1>        -0.330857 
     26 O          -1.475174   -2.314514   -7.186671 O.2       1 <1>        -0.264567 
     27 C          -3.541462   -3.745148   -3.378867 C.3       1 <1>        -0.059016 
     28 C          -2.984039    0.813059   -1.633222 C.3       1 <1>        -0.055302 
     29 C          -0.911269    0.155653    0.101982 C.3       1 <1>        -0.058099 
     30 O          -0.232406   -3.715618    0.169006 O.2       1 <1>        -0.292347 
     31 C          -1.607801   -3.405747    3.021402 C.3       1 <1>        -0.058618 
     32 C          -0.957029    1.780682    3.085255 C.3       1 <1>        -0.057181 
     33 C          -0.622839    0.596913    5.205813 C.3       1 <1>        -0.057181 
     34 O           1.967976    0.832180    3.993274 O.3       1 <1>        -0.344868 
     35 C           2.210451    2.123332    3.357900 C.3       1 <1>         0.189107 
     36 C           3.709212    2.288037    2.982960 C.3       1 <1>         0.140651 
     37 O           1.744320    3.148412    4.251066 O.3       1 <1>        -0.332678 
     38 C           1.832407    4.471516    3.678777 C.3       1 <1>         0.174377 
     39 C           3.320308    4.789053    3.367218 C.3       1 <1>         0.119040 
     40 C           3.942482    3.721676    2.422007 C.3       1 <1>         0.114864 
     41 C           0.909198    4.690379    2.492872 C.2       1 <1>         0.291467 
     42 O          -0.370127    4.939594    2.784486 O.3       1 <1>        -0.329249 
     43 O           1.297416    4.651115    1.338112 O.2       1 <1>        -0.262180 
     44 O           3.998298    1.242013    2.017189 O.3       1 <1>        -0.337770 
     45 C           5.356808    1.194564    1.521762 C.3       1 <1>         0.188134 
     46 O           5.815359   -0.167854    1.600468 O.3       1 <1>        -0.346058 
     47 C           5.030951   -1.082539    0.813262 C.3       1 <1>         0.079193 
     48 C           5.044480   -0.678806   -0.679930 C.3       1 <1>         0.106933 
     49 C           4.530039    0.773533   -0.825030 C.3       1 <1>         0.113709 
     50 C           5.418789    1.698613    0.049638 C.3       1 <1>         0.134103 
     51 O           4.099070    4.797025    4.580811 O.3       1 <1>        -0.386033 
     52 O           5.347575    3.986239    2.228299 O.3       1 <1>        -0.386378 
     53 O           6.765268    1.687727   -0.469504 O.3       1 <1>        -0.384104 
     54 O           4.571658    1.131445   -2.222367 O.3       1 <1>        -0.386412 
     55 O           4.215367   -1.595118   -1.418259 O.3       1 <1>        -0.386859 
     56 H          -0.842902    0.035743   -4.198791 H         1 <1>         0.028121 
     57 H          -2.534103    0.544521   -4.103972 H         1 <1>         0.028121 
     58 H          -1.456195   -2.283867   -4.072979 H         1 <1>         0.035146 
     59 H          -3.353867   -2.994837   -5.857962 H         1 <1>         0.027098 
     60 H          -4.996942   -2.455685   -5.470163 H         1 <1>         0.027098 
     61 H          -3.843715   -0.987399   -7.150222 H         1 <1>         0.027550 
     62 H          -4.326849   -0.099873   -5.700118 H         1 <1>         0.027550 
     63 H          -5.034784   -0.724545   -0.963061 H         1 <1>         0.027392 
     64 H          -4.290064   -2.321148   -0.912059 H         1 <1>         0.027392 
     65 H          -4.879724   -0.554210   -3.405446 H         1 <1>         0.027096 
     66 H          -5.581795   -2.097031   -2.977409 H         1 <1>         0.027096 
     67 H          -0.487617   -3.118311   -2.207743 H         1 <1>         0.065218 
     68 H          -2.730843   -2.618568    0.942816 H         1 <1>         0.039170 
     69 H          -1.705617   -1.310100    4.229909 H         1 <1>         0.031221 
     70 H          -3.660708   -1.332495    3.009954 H         1 <1>         0.026846 
     71 H          -3.413726    0.281098    3.544752 H         1 <1>         0.026846 
     72 H          -3.051859    1.072560    1.330117 H         1 <1>         0.027107 
     73 H          -4.208365   -0.217902    1.104698 H         1 <1>         0.027107 
     74 H           0.781727   -3.300221    2.440277 H         1 <1>         0.027160 
     75 H           0.909884   -1.909725    1.403398 H         1 <1>         0.027160 
     76 H           0.811265   -1.858210    4.501691 H         1 <1>         0.029047 
     77 H           2.265192   -1.708755    3.495677 H         1 <1>         0.029047 
     78 H           1.277966    0.120420    2.298311 H         1 <1>         0.060224 
     79 H          -0.977258    1.399307   -6.386270 H         1 <1>         0.023986 
     80 H          -2.146271    0.941018   -7.658926 H         1 <1>         0.023986 
     81 H          -2.709113    1.740798   -6.168544 H         1 <1>         0.023986 
     82 H           0.713675   -1.529568   -6.909657 H         1 <1>         0.220226 
     83 H          -3.292950   -3.881696   -2.317634 H         1 <1>         0.023525 
     84 H          -2.795384   -4.315064   -3.953990 H         1 <1>         0.023525 
     85 H          -4.521124   -4.218700   -3.549743 H         1 <1>         0.023525 
     86 H          -3.347719    1.449095   -0.822319 H         1 <1>         0.023829 
     87 H          -2.030855    1.225411   -2.000167 H         1 <1>         0.023829 
     88 H          -3.746535    1.022691   -2.380736 H         1 <1>         0.023829 
     89 H          -0.265778   -0.177839   -0.721746 H         1 <1>         0.023553 
     90 H          -0.346446    0.009932    0.992253 H         1 <1>         0.023553 
     91 H          -1.065947    1.237146   -0.003567 H         1 <1>         0.023553 
     92 H          -1.115986   -3.579846    3.991966 H         1 <1>         0.023535 
     93 H          -2.691184   -3.416102    3.210451 H         1 <1>         0.023535 
     94 H          -1.390570   -4.281338    2.388443 H         1 <1>         0.023535 
     95 H          -0.557201    2.590552    3.701622 H         1 <1>         0.023587 
     96 H          -0.599287    1.990633    2.077275 H         1 <1>         0.023587 
     97 H          -2.031977    1.970791    3.117996 H         1 <1>         0.023587 
     98 H          -0.362440   -0.288565    5.798387 H         1 <1>         0.023587 
     99 H          -1.643468    0.889661    5.500396 H         1 <1>         0.023587 
    100 H           0.075919    1.380787    5.538320 H         1 <1>         0.023587 
    101 H           1.699932    2.251181    2.389977 H         1 <1>         0.093773 
    102 H           4.305437    2.142799    3.895309 H         1 <1>         0.067477 
    103 H           1.488577    5.170340    4.455514 H         1 <1>         0.072940 
    104 H           3.394136    5.782987    2.890842 H         1 <1>         0.065129 
    105 H           3.460749    3.765441    1.435744 H         1 <1>         0.064781 
    106 H          -0.895578    5.064742    2.000914 H         1 <1>         0.220293 
    107 H           6.075969    1.736943    2.155372 H         1 <1>         0.093743 
    108 H           5.480206   -2.082907    0.915391 H         1 <1>         0.058735 
    109 H           3.995800   -1.139408    1.186007 H         1 <1>         0.058735 
    110 H           6.083824   -0.728323   -1.049490 H         1 <1>         0.064300 
    111 H           3.482981    0.801988   -0.475167 H         1 <1>         0.064747 
    112 H           5.020590    2.721598   -0.027759 H         1 <1>         0.067095 
    113 H           3.817175    5.436310    5.228525 H         1 <1>         0.210020 
    114 H           5.532030    4.852785    1.877412 H         1 <1>         0.210005 
    115 H           7.356763    2.260259    0.008432 H         1 <1>         0.210110 
    116 H           4.265491    2.016921   -2.390288 H         1 <1>         0.210005 
    117 H           4.187198   -1.371241   -2.344223 H         1 <1>         0.209989 
@<TRIPOS>BOND
     1    1    2 1    
     2    1    6 1    
     3    1   56 1    
     4    1   57 1    
     5    2    3 1    
     6    2    7 1    
     7    2   58 1    
     8    3    4 1    
     9    3   10 1    
    10    3   27 1    
    11    4    5 1    
    12    4   59 1    
    13    4   60 1    
    14    5    6 1    
    15    5   61 1    
    16    5   62 1    
    17    6   23 1    
    18    6   24 1    
    19    7    8 1    
    20    7   11 2    
    21    8    9 1    
    22    8   14 1    
    23    8   28 1    
    24    9   10 1    
    25    9   63 1    
    26    9   64 1    
    27   10   65 1    
    28   10   66 1    
    29   11   12 1    
    30   11   67 1    
    31   12   13 1    
    32   12   30 2    
    33   13   14 1    
    34   13   15 1    
    35   13   68 1    
    36   14   18 1    
    37   14   29 1    
    38   15   16 1    
    39   15   19 1    
    40   15   31 1    
    41   16   17 1    
    42   16   22 1    
    43   16   69 1    
    44   17   18 1    
    45   17   70 1    
    46   17   71 1    
    47   18   72 1    
    48   18   73 1    
    49   19   20 1    
    50   19   74 1    
    51   19   75 1    
    52   20   21 1    
    53   20   76 1    
    54   20   77 1    
    55   21   22 1    
    56   21   34 1    
    57   21   78 1    
    58   22   32 1    
    59   22   33 1    
    60   23   25 1    
    61   23   26 2    
    62   24   79 1    
    63   24   80 1    
    64   24   81 1    
    65   25   82 1    
    66   27   83 1    
    67   27   84 1    
    68   27   85 1    
    69   28   86 1    
    70   28   87 1    
    71   28   88 1    
    72   29   89 1    
    73   29   90 1    
    74   29   91 1    
    75   31   92 1    
    76   31   93 1    
    77   31   94 1    
    78   32   95 1    
    79   32   96 1    
    80   32   97 1    
    81   33   98 1    
    82   33   99 1    
    83   33  100 1    
    84   34   35 1    
    85   35   36 1    
    86   35   37 1    
    87   35  101 1    
    88   36   40 1    
    89   36   44 1    
    90   36  102 1    
    91   37   38 1    
    92   38   39 1    
    93   38   41 1    
    94   38  103 1    
    95   39   40 1    
    96   39   51 1    
    97   39  104 1    
    98   40   52 1    
    99   40  105 1    
   100   41   42 1    
   101   41   43 2    
   102   42  106 1    
   103   44   45 1    
   104   45   46 1    
   105   45   50 1    
   106   45  107 1    
   107   46   47 1    
   108   47   48 1    
   109   47  108 1    
   110   47  109 1    
   111   48   49 1    
   112   48   55 1    
   113   48  110 1    
   114   49   50 1    
   115   49   54 1    
   116   49  111 1    
   117   50   53 1    
   118   50  112 1    
   119   51  113 1    
   120   52  114 1    
   121   53  115 1    
   122   54  116 1    
   123   55  117 1    
@<TRIPOS>SUBSTRUCTURE
     1 ****        1 TEMP              0 ****  ****    0 ROOT 
@<TRIPOS>NORMAL
@<TRIPOS>FF_PBC
FORCE_FIELD_SETUP_FEATURE Force Field Setup information
v1.0  0 0.000000 0.000000 0.000000 0.000000 0.000000 0.000000 NONE 0 0 0 0 1 0 0 0 0 0 0 0 0
