@<TRIPOS>MOLECULE
MOL006963
   58    57     1     1     0
SMALL
GASTEIGER


@<TRIPOS>ATOM
      1 C           9.155108    0.425935   -0.000049 C.2       1 <1>         0.262151 
      2 C           7.903899   -0.413247    0.000015 C.3       1 <1>         0.033199 
      3 C           6.608785    0.443501   -0.000080 C.3       1 <1>        -0.044055 
      4 C           5.337616   -0.449304    0.000008 C.3       1 <1>        -0.052596 
      5 C           4.043039    0.409322   -0.000108 C.3       1 <1>        -0.053036 
      6 C           2.771056   -0.482434    0.000125 C.3       1 <1>        -0.052779 
      7 C           1.477234    0.377299    0.000066 C.3       1 <1>        -0.049616 
      8 C           0.203929   -0.511186    0.000703 C.3       1 <1>        -0.034751 
      9 C          -1.061713    0.313098    0.000688 C.2       1 <1>        -0.087640 
     10 C          -2.274097   -0.256422   -0.000831 C.2       1 <1>        -0.084202 
     11 C          -3.536534    0.573665   -0.000924 C.3       1 <1>        -0.016545 
     12 C          -4.804088   -0.248390   -0.000672 C.2       1 <1>        -0.084202 
     13 C          -6.012970    0.328524    0.000616 C.2       1 <1>        -0.087640 
     14 C          -7.282863   -0.488924    0.000771 C.3       1 <1>        -0.034751 
     15 C          -8.551841    0.405375    0.000097 C.3       1 <1>        -0.049624 
     16 C          -9.848522   -0.449810    0.000196 C.3       1 <1>        -0.053028 
     17 C         -11.116563    0.446916   -0.000196 C.3       1 <1>        -0.055902 
     18 C         -12.411257   -0.406970   -0.000123 C.3       1 <1>        -0.065276 
     19 O           9.116221    1.646860   -0.000140 O.2       1 <1>        -0.264976 
     20 O          10.298111   -0.275812   -0.000000 O.3       1 <1>        -0.315471 
     21 C          11.486511    0.540536   -0.000074 C.3       1 <1>         0.054243 
     22 C          12.713966   -0.401256   -0.000038 C.3       1 <1>        -0.040980 
     23 H           7.925165   -1.056277    0.893756 H         1 <1>         0.036606 
     24 H           7.925184   -1.056443   -0.893616 H         1 <1>         0.036606 
     25 H           6.603903    1.089223   -0.893961 H         1 <1>         0.027004 
     26 H           6.603906    1.089410    0.893659 H         1 <1>         0.027004 
     27 H           5.346100   -1.095186    0.893484 H         1 <1>         0.026540 
     28 H           5.346092   -1.095402   -0.893288 H         1 <1>         0.026540 
     29 H           4.034683    1.055282   -0.893484 H         1 <1>         0.026529 
     30 H           4.034783    1.055621    0.893097 H         1 <1>         0.026529 
     31 H           2.778820   -1.128326    0.893690 H         1 <1>         0.026538 
     32 H           2.778685   -1.128665   -0.893089 H         1 <1>         0.026538 
     33 H           1.466332    1.022386   -0.894169 H         1 <1>         0.026822 
     34 H           1.466715    1.023044    0.893912 H         1 <1>         0.026822 
     35 H           0.205284   -1.154976    0.895082 H         1 <1>         0.030732 
     36 H           0.205002   -1.155796   -0.893063 H         1 <1>         0.030732 
     37 H          -0.991353    1.401855    0.001940 H         1 <1>         0.056905 
     38 H          -2.334504   -1.345420   -0.002064 H         1 <1>         0.057203 
     39 H          -3.534553    1.216926    0.893143 H         1 <1>         0.034961 
     40 H          -3.534646    1.216127   -0.895549 H         1 <1>         0.034961 
     41 H          -4.750450   -1.337727   -0.001605 H         1 <1>         0.057203 
     42 H          -6.077381    1.417639    0.001589 H         1 <1>         0.056905 
     43 H          -7.287639   -1.132586    0.895215 H         1 <1>         0.030732 
     44 H          -7.287385   -1.133566   -0.892987 H         1 <1>         0.030732 
     45 H          -8.538817    1.050330   -0.894232 H         1 <1>         0.026822 
     46 H          -8.539219    1.051079    0.893836 H         1 <1>         0.026822 
     47 H          -9.859967   -1.095504    0.893721 H         1 <1>         0.026529 
     48 H          -9.859757   -1.096040   -0.893009 H         1 <1>         0.026529 
     49 H         -11.111426    1.093216   -0.893880 H         1 <1>         0.026265 
     50 H         -11.111638    1.093678    0.893092 H         1 <1>         0.026265 
     51 H         -13.297189    0.247677   -0.000379 H         1 <1>         0.022978 
     52 H         -12.449336   -1.047154    0.895064 H         1 <1>         0.022978 
     53 H         -12.449159   -1.047606   -0.895013 H         1 <1>         0.022978 
     54 H          11.521364    1.180182    0.898727 H         1 <1>         0.056303 
     55 H          11.521332    1.180056   -0.898978 H         1 <1>         0.056303 
     56 H          13.648859    0.181117   -0.000087 H         1 <1>         0.025189 
     57 H          12.693677   -1.042781   -0.894781 H         1 <1>         0.025189 
     58 H          12.693704   -1.042675    0.894782 H         1 <1>         0.025189 
@<TRIPOS>BOND
     1    1    2 1    
     2    1   19 2    
     3    1   20 1    
     4    2    3 1    
     5    2   23 1    
     6    2   24 1    
     7    3    4 1    
     8    3   25 1    
     9    3   26 1    
    10    4    5 1    
    11    4   27 1    
    12    4   28 1    
    13    5    6 1    
    14    5   29 1    
    15    5   30 1    
    16    6    7 1    
    17    6   31 1    
    18    6   32 1    
    19    7    8 1    
    20    7   33 1    
    21    7   34 1    
    22    8    9 1    
    23    8   35 1    
    24    8   36 1    
    25    9   10 2    
    26    9   37 1    
    27   10   11 1    
    28   10   38 1    
    29   11   12 1    
    30   11   39 1    
    31   11   40 1    
    32   12   13 2    
    33   12   41 1    
    34   13   14 1    
    35   13   42 1    
    36   14   15 1    
    37   14   43 1    
    38   14   44 1    
    39   15   16 1    
    40   15   45 1    
    41   15   46 1    
    42   16   17 1    
    43   16   47 1    
    44   16   48 1    
    45   17   18 1    
    46   17   49 1    
    47   17   50 1    
    48   18   51 1    
    49   18   52 1    
    50   18   53 1    
    51   20   21 1    
    52   21   22 1    
    53   21   54 1    
    54   21   55 1    
    55   22   56 1    
    56   22   57 1    
    57   22   58 1    
@<TRIPOS>SUBSTRUCTURE
     1 ****        1 TEMP              0 ****  ****    0 ROOT 
@<TRIPOS>NORMAL
@<TRIPOS>FF_PBC
FORCE_FIELD_SETUP_FEATURE Force Field Setup information
v1.0  0 0.000000 0.000000 0.000000 0.000000 0.000000 0.000000 NONE 0 0 0 0 1 0 0 0 0 0 0 0 0
