@<TRIPOS>MOLECULE
MOL000171
   42    43     1     1     0
SMALL
GASTEIGER


@<TRIPOS>ATOM
      1 C           2.764131   -0.046940   -0.532280 C.3       1 <1>         0.063617 
      2 C           1.217265    0.262568   -0.584537 C.3       1 <1>        -0.008942 
      3 C           3.654320    1.061981   -1.173579 C.3       1 <1>        -0.036069 
      4 C           3.100357   -1.383487   -1.270939 C.3       1 <1>        -0.036069 
      5 O           3.132079   -0.162054    0.854835 O.3       1 <1>        -0.388835 
      6 C           0.461972   -0.638130    0.441317 C.3       1 <1>        -0.025799 
      7 C           0.878383    1.768245   -0.329415 C.3       1 <1>        -0.046803 
      8 C          -1.021377   -0.756666    0.198895 C.2       1 <1>        -0.066848 
      9 C          -0.589640    2.212100   -0.607625 C.3       1 <1>        -0.046406 
     10 C          -1.637264   -2.113993   -0.019235 C.3       1 <1>        -0.022172 
     11 C          -1.927015    0.218831    0.167887 C.2       1 <1>        -0.067181 
     12 C          -1.697682    1.696458    0.351690 C.3       1 <1>        -0.022458 
     13 C          -2.998971   -1.702082   -0.643602 C.3       1 <1>        -0.043047 
     14 C          -1.815670   -2.834699    1.341956 C.3       1 <1>        -0.058684 
     15 C          -3.319092   -0.295346   -0.074310 C.3       1 <1>        -0.030697 
     16 C          -1.475186    2.072302    1.840711 C.3       1 <1>        -0.058693 
     17 H           0.859600    0.015977   -1.597720 H         1 <1>         0.033130 
     18 H           3.311001    1.292748   -2.193688 H         1 <1>         0.025721 
     19 H           3.647215    1.976814   -0.562539 H         1 <1>         0.025721 
     20 H           4.705343    0.740859   -1.234161 H         1 <1>         0.025721 
     21 H           2.598316   -2.258021   -0.839631 H         1 <1>         0.025721 
     22 H           4.180339   -1.591373   -1.227097 H         1 <1>         0.025721 
     23 H           2.813611   -1.311817   -2.331194 H         1 <1>         0.025721 
     24 H           4.050678   -0.368718    0.990708 H         1 <1>         0.210147 
     25 H           0.860118   -1.658784    0.429638 H         1 <1>         0.031372 
     26 H           0.629106   -0.269640    1.462592 H         1 <1>         0.031372 
     27 H           1.195383    2.061169    0.683029 H         1 <1>         0.026909 
     28 H           1.447239    2.381745   -1.044067 H         1 <1>         0.026909 
     29 H          -0.620118    3.315634   -0.560754 H         1 <1>         0.027099 
     30 H          -0.858913    1.919351   -1.636902 H         1 <1>         0.027099 
     31 H          -1.055908   -2.740175   -0.718048 H         1 <1>         0.034310 
     32 H          -2.625105    2.212723    0.044270 H         1 <1>         0.034300 
     33 H          -2.863100   -1.606426   -1.735202 H         1 <1>         0.027391 
     34 H          -3.804154   -2.431165   -0.459505 H         1 <1>         0.027391 
     35 H          -2.342544   -3.790094    1.195318 H         1 <1>         0.023544 
     36 H          -0.834319   -3.043517    1.794681 H         1 <1>         0.023544 
     37 H          -2.397970   -2.213328    2.039509 H         1 <1>         0.023544 
     38 H          -3.902493    0.306450   -0.789879 H         1 <1>         0.031033 
     39 H          -3.854324   -0.350130    0.886580 H         1 <1>         0.031033 
     40 H          -2.350689    1.765753    2.434584 H         1 <1>         0.023544 
     41 H          -1.347651    3.161119    1.943719 H         1 <1>         0.023544 
     42 H          -0.591501    1.579091    2.264026 H         1 <1>         0.023544 
@<TRIPOS>BOND
     1    1    2 1    
     2    1    3 1    
     3    1    4 1    
     4    1    5 1    
     5    2    6 1    
     6    2    7 1    
     7    2   17 1    
     8    3   18 1    
     9    3   19 1    
    10    3   20 1    
    11    4   21 1    
    12    4   22 1    
    13    4   23 1    
    14    5   24 1    
    15    6    8 1    
    16    6   25 1    
    17    6   26 1    
    18    7    9 1    
    19    7   27 1    
    20    7   28 1    
    21    8   10 1    
    22    8   11 2    
    23    9   12 1    
    24    9   29 1    
    25    9   30 1    
    26   10   13 1    
    27   10   14 1    
    28   10   31 1    
    29   11   12 1    
    30   11   15 1    
    31   12   16 1    
    32   12   32 1    
    33   13   15 1    
    34   13   33 1    
    35   13   34 1    
    36   14   35 1    
    37   14   36 1    
    38   14   37 1    
    39   15   38 1    
    40   15   39 1    
    41   16   40 1    
    42   16   41 1    
    43   16   42 1    
@<TRIPOS>SUBSTRUCTURE
     1 ****        1 TEMP              0 ****  ****    0 ROOT 
@<TRIPOS>NORMAL
@<TRIPOS>FF_PBC
FORCE_FIELD_SETUP_FEATURE Force Field Setup information
v1.0  0 0.000000 0.000000 0.000000 0.000000 0.000000 0.000000 NONE 0 0 0 0 1 0 0 0 0 0 0 0 0
