@<TRIPOS>MOLECULE
MOL004708
   42    43     1     1     0
SMALL
GASTEIGER


@<TRIPOS>ATOM
      1 O          -2.062154   -1.443783   -1.870193 O.3       1 <1>        -0.388553 
      2 C           0.041233   -1.351942   -0.727969 C.3       1 <1>        -0.005587 
      3 C           0.077750    0.205977   -0.767436 C.3       1 <1>        -0.014167 
      4 C          -0.675734    0.888159    0.427360 C.3       1 <1>        -0.032002 
      5 C          -1.431278   -1.860078   -0.642480 C.3       1 <1>         0.066683 
      6 C          -2.132853    0.339136    0.452609 C.3       1 <1>        -0.046837 
      7 C          -2.160541   -1.207492    0.561117 C.3       1 <1>        -0.023706 
      8 C           1.010967   -1.875648    0.368315 C.3       1 <1>        -0.043385 
      9 C          -0.592983    2.459750    0.374317 C.3       1 <1>        -0.043343 
     10 C           1.505615    0.677224   -0.904306 C.2       1 <1>        -0.081307 
     11 C           2.461766   -1.437657    0.033939 C.3       1 <1>        -0.031637 
     12 C          -1.528194   -3.411240   -0.557834 C.3       1 <1>        -0.035799 
     13 C           2.574546   -0.041665   -0.532826 C.2       1 <1>        -0.076238 
     14 C           0.643349    2.997479    1.162373 C.3       1 <1>        -0.062396 
     15 C          -1.844292    3.203476    0.931504 C.3       1 <1>        -0.062396 
     16 C           3.982635    0.494002   -0.674425 C.3       1 <1>        -0.043778 
     17 H          -2.984383   -1.670216   -1.926760 H         1 <1>         0.210159 
     18 H           0.437497   -1.725754   -1.688810 H         1 <1>         0.033419 
     19 H          -0.438164    0.510116   -1.694475 H         1 <1>         0.034935 
     20 H          -0.219247    0.586160    1.381306 H         1 <1>         0.030901 
     21 H          -2.684680    0.719530    1.326922 H         1 <1>         0.026908 
     22 H          -2.665260    0.653650   -0.459406 H         1 <1>         0.026908 
     23 H          -3.209147   -1.547812    0.578892 H         1 <1>         0.029291 
     24 H          -1.693876   -1.524870    1.506514 H         1 <1>         0.029291 
     25 H           1.007458   -2.975014    0.423970 H         1 <1>         0.027203 
     26 H           0.733703   -1.497919    1.361662 H         1 <1>         0.027203 
     27 H          -0.505199    2.771311   -0.680542 H         1 <1>         0.029832 
     28 H           1.658597    1.666064   -1.338545 H         1 <1>         0.057450 
     29 H           3.088279   -1.536859    0.935446 H         1 <1>         0.031000 
     30 H           2.870365   -2.110981   -0.737570 H         1 <1>         0.031000 
     31 H          -1.175496   -3.789127    0.412431 H         1 <1>         0.025730 
     32 H          -2.573315   -3.735803   -0.674591 H         1 <1>         0.025730 
     33 H          -0.933880   -3.871574   -1.361571 H         1 <1>         0.025730 
     34 H           0.499074    2.837261    2.242103 H         1 <1>         0.023242 
     35 H           0.767276    4.078334    0.991143 H         1 <1>         0.023242 
     36 H           1.584673    2.508032    0.883695 H         1 <1>         0.023242 
     37 H          -1.695620    4.293659    0.878976 H         1 <1>         0.023242 
     38 H          -2.747618    2.976509    0.345520 H         1 <1>         0.023242 
     39 H          -2.020481    2.937871    1.985060 H         1 <1>         0.023242 
     40 H           4.569715   -0.180879   -1.315188 H         1 <1>         0.027436 
     41 H           4.015955    1.500975   -1.117187 H         1 <1>         0.027436 
     42 H           4.457643    0.542358    0.316869 H         1 <1>         0.027436 
@<TRIPOS>BOND
     1    5    1 1    
     2    1   17 1    
     3    2    3 1    
     4    2    5 1    
     5    2    8 1    
     6    2   18 1    
     7    3    4 1    
     8    3   10 1    
     9    3   19 1    
    10    4    6 1    
    11    4    9 1    
    12    4   20 1    
    13    5    7 1    
    14    5   12 1    
    15    6    7 1    
    16    6   21 1    
    17    6   22 1    
    18    7   23 1    
    19    7   24 1    
    20    8   11 1    
    21    8   25 1    
    22    8   26 1    
    23    9   14 1    
    24    9   15 1    
    25    9   27 1    
    26   10   13 2    
    27   10   28 1    
    28   11   13 1    
    29   11   29 1    
    30   11   30 1    
    31   12   31 1    
    32   12   32 1    
    33   12   33 1    
    34   13   16 1    
    35   14   34 1    
    36   14   35 1    
    37   14   36 1    
    38   15   37 1    
    39   15   38 1    
    40   15   39 1    
    41   16   40 1    
    42   16   41 1    
    43   16   42 1    
@<TRIPOS>SUBSTRUCTURE
     1 ****        2 TEMP              0 ****  ****    0 ROOT 
@<TRIPOS>NORMAL
@<TRIPOS>FF_PBC
FORCE_FIELD_SETUP_FEATURE Force Field Setup information
v1.0  0 0.000000 0.000000 0.000000 0.000000 0.000000 0.000000 NONE 0 0 0 0 1 0 0 0 0 0 0 0 0
