@<TRIPOS>MOLECULE
MOL005325
  143   150     1     1     0
SMALL
GASTEIGER


@<TRIPOS>ATOM
      1 O          -3.912923   -1.973363    1.987983 O.3       1 <1>        -0.344868 
      2 O           3.954595    2.207961   -4.677477 O.3       1 <1>        -0.281651 
      3 O           3.396192    1.363302   -2.786931 O.2       1 <1>        -0.264252 
      4 O          -4.885730   -4.048444    1.608346 O.3       1 <1>        -0.332678 
      5 O          -3.051015   -5.056393    3.862088 O.3       1 <1>        -0.337759 
      6 O           2.181108    3.502264   -5.498628 O.3       1 <1>        -0.340066 
      7 O          -5.220988   -2.100735    4.519313 O.3       1 <1>        -0.386378 
      8 O          -5.762495   -5.712749    3.676960 O.3       1 <1>        -0.386033 
      9 O           3.945383    4.048793   -7.925848 O.3       1 <1>        -0.384090 
     10 O           3.606288    0.519941   -6.980948 O.3       1 <1>        -0.386401 
     11 O          -1.081277   -5.986503    4.579684 O.3       1 <1>        -0.340519 
     12 O           1.338264    3.209876   -8.294899 O.3       1 <1>        -0.386488 
     13 O          -6.344939   -1.689508    1.061141 O.3       1 <1>        -0.329249 
     14 O          -7.428913   -1.924989    2.977110 O.2       1 <1>        -0.262180 
     15 O          -2.156359   -6.347068    7.331507 O.3       1 <1>        -0.384104 
     16 O           0.271146    0.237996   -5.585803 O.3       1 <1>        -0.392366 
     17 O          -4.341615   -7.627681    4.686372 O.3       1 <1>        -0.386401 
     18 O          -0.969320   -8.537583    6.058784 O.3       1 <1>        -0.386488 
     19 O          -1.873229   -8.585749    1.973507 O.3       1 <1>        -0.392366 
     20 C           0.084788    3.185753   -0.241107 C.3       1 <1>        -0.019372 
     21 C          -0.037394    1.654267   -0.619189 C.3       1 <1>        -0.025736 
     22 C          -1.387534    0.900313   -0.209212 C.3       1 <1>        -0.024959 
     23 C           1.511935    3.816681   -0.649718 C.3       1 <1>        -0.005095 
     24 C          -1.644144    1.057301    1.334923 C.3       1 <1>        -0.027826 
     25 C          -0.186179    3.220778    1.303542 C.3       1 <1>        -0.046268 
     26 C          -2.864568    0.255863    1.947255 C.3       1 <1>        -0.005229 
     27 C          -1.510401    2.542457    1.783743 C.3       1 <1>        -0.048609 
     28 C           2.684950    2.833493   -0.626995 C.2       1 <1>        -0.062908 
     29 C           4.062632    3.360014   -1.021751 C.3       1 <1>        -0.004215 
     30 C           1.220081    0.876085   -0.109736 C.3       1 <1>        -0.030614 
     31 C          -1.277662   -0.648460   -0.450846 C.3       1 <1>        -0.044711 
     32 C           1.565023    4.308247   -2.143592 C.3       1 <1>        -0.042415 
     33 C           4.048559    3.668674   -2.561677 C.3       1 <1>         0.062735 
     34 C          -1.013166    4.078426   -0.927540 C.3       1 <1>        -0.058491 
     35 C          -2.710858   -1.264471    1.595755 C.3       1 <1>         0.067175 
     36 C           2.950312    4.766500   -2.699292 C.3       1 <1>        -0.036966 
     37 C          -2.570402    1.408683   -1.113033 C.3       1 <1>        -0.059009 
     38 C           2.536412    1.541191   -0.329163 C.2       1 <1>        -0.083635 
     39 C          -2.474627   -1.494158    0.076003 C.3       1 <1>        -0.025470 
     40 C           1.824487    5.038993    0.290823 C.3       1 <1>        -0.055323 
     41 C           5.339617    2.541449   -0.670958 C.3       1 <1>        -0.040330 
     42 C           5.466464    4.189918   -2.998225 C.3       1 <1>        -0.037281 
     43 C           6.638230    3.405000   -0.828920 C.3       1 <1>        -0.034278 
     44 C          -2.835144    0.361826    3.510696 C.3       1 <1>        -0.057181 
     45 C          -4.281563    0.762243    1.525387 C.3       1 <1>        -0.057181 
     46 C           6.396642    4.588834   -1.821879 C.3       1 <1>        -0.046865 
     47 C           3.755295    2.379712   -3.354042 C.2       1 <1>         0.271268 
     48 C           7.065568    4.006482    0.546162 C.3       1 <1>        -0.059792 
     49 C           7.804223    2.497278   -1.330413 C.3       1 <1>        -0.059792 
     50 C          -3.759303   -3.392233    2.215526 C.3       1 <1>         0.189107 
     51 C          -3.574046   -3.708345    3.728160 C.3       1 <1>         0.140651 
     52 C           3.599561    3.265183   -5.577697 C.3       1 <1>         0.196536 
     53 C          -4.918186   -3.507011    4.472493 C.3       1 <1>         0.114864 
     54 C          -6.134305   -3.808119    2.288210 C.3       1 <1>         0.174377 
     55 C          -6.039561   -4.302277    3.750805 C.3       1 <1>         0.119040 
     56 C           4.056670    2.923004   -7.026159 C.3       1 <1>         0.134609 
     57 C           3.226771    1.757181   -7.614422 C.3       1 <1>         0.114075 
     58 C           1.358473    2.425752   -6.006283 C.3       1 <1>         0.113019 
     59 C           1.712845    2.080340   -7.478205 C.3       1 <1>         0.111896 
     60 C          -2.279456   -5.350362    5.052610 C.3       1 <1>         0.188544 
     61 C          -6.676850   -2.401151    2.142247 C.2       1 <1>         0.291467 
     62 C          -2.967410   -6.229136    6.141749 C.3       1 <1>         0.134126 
     63 C           1.256915    1.167594   -5.093957 C.3       1 <1>         0.073015 
     64 C          -3.243431   -7.659508    5.617468 C.3       1 <1>         0.114061 
     65 C          -1.286291   -7.296807    4.007546 C.3       1 <1>         0.113005 
     66 C          -1.940826   -8.269577    5.025019 C.3       1 <1>         0.111896 
     67 C          -1.981957   -7.299382    2.614892 C.3       1 <1>         0.073015 
     68 H           0.055879    1.612171   -1.715361 H         1 <1>         0.031460 
     69 H          -0.793238    0.581301    1.837546 H         1 <1>         0.031210 
     70 H          -0.263154    4.255197    1.670689 H         1 <1>         0.027096 
     71 H           0.661762    2.751890    1.826332 H         1 <1>         0.027096 
     72 H          -1.477316    2.600478    2.883524 H         1 <1>         0.026846 
     73 H          -2.395250    3.114851    1.482889 H         1 <1>         0.026846 
     74 H           4.212536    4.252284   -0.409532 H         1 <1>         0.035619 
     75 H           1.328799   -0.045553   -0.705236 H         1 <1>         0.031042 
     76 H           1.218418    0.605055    0.952145 H         1 <1>         0.031042 
     77 H          -1.118544   -0.844734   -1.524165 H         1 <1>         0.027149 
     78 H          -0.436019   -1.087438    0.103277 H         1 <1>         0.027149 
     79 H           0.912085    5.180915   -2.296554 H         1 <1>         0.027403 
     80 H           1.213377    3.497652   -2.796606 H         1 <1>         0.027403 
     81 H          -0.836182    5.149612   -0.776807 H         1 <1>         0.023542 
     82 H          -2.022029    3.950022   -0.545432 H         1 <1>         0.023542 
     83 H          -1.058975    3.900558   -2.010715 H         1 <1>         0.023542 
     84 H          -1.832668   -1.639806    2.149565 H         1 <1>         0.060224 
     85 H           2.805294    5.075594   -3.740987 H         1 <1>         0.027586 
     86 H           3.299173    5.676849   -2.191153 H         1 <1>         0.027586 
     87 H          -3.219324    2.122577   -0.596988 H         1 <1>         0.023525 
     88 H          -3.234498    0.620165   -1.478138 H         1 <1>         0.023525 
     89 H          -2.213486    1.871420   -2.041232 H         1 <1>         0.023525 
     90 H           3.394716    0.872437   -0.262431 H         1 <1>         0.057198 
     91 H          -2.230723   -2.552159   -0.111896 H         1 <1>         0.029047 
     92 H          -3.411532   -1.323136   -0.465744 H         1 <1>         0.029047 
     93 H           2.617392    5.710730   -0.050150 H         1 <1>         0.023829 
     94 H           0.971142    5.714504    0.419051 H         1 <1>         0.023829 
     95 H           2.128780    4.673644    1.283064 H         1 <1>         0.023829 
     96 H           5.280429    2.166117    0.363476 H         1 <1>         0.027642 
     97 H           5.392871    1.664724   -1.333098 H         1 <1>         0.027642 
     98 H           6.003160    3.424388   -3.580815 H         1 <1>         0.027577 
     99 H           5.375343    5.082237   -3.637919 H         1 <1>         0.027577 
    100 H          -3.147069    1.357613    3.858211 H         1 <1>         0.023587 
    101 H          -1.837393    0.146238    3.922358 H         1 <1>         0.023587 
    102 H          -4.547814    0.507809    0.495010 H         1 <1>         0.023587 
    103 H          -4.373554    1.849081    1.653626 H         1 <1>         0.023587 
    104 H          -5.054487    0.302102    2.159705 H         1 <1>         0.023587 
    105 H          -3.531855   -0.356967    3.962048 H         1 <1>         0.023587 
    106 H           5.941984    5.455437   -1.314799 H         1 <1>         0.027072 
    107 H           7.364262    4.942843   -2.215427 H         1 <1>         0.027072 
    108 H           8.747380    3.062229   -1.387628 H         1 <1>         0.023499 
    109 H           7.593783    2.086845   -2.329032 H         1 <1>         0.023499 
    110 H           7.942914    4.660413    0.423429 H         1 <1>         0.023499 
    111 H           6.252896    4.601614    0.989605 H         1 <1>         0.023499 
    112 H           7.330908    3.210133    1.258683 H         1 <1>         0.023499 
    113 H           7.952799    1.653199   -0.639144 H         1 <1>         0.023499 
    114 H          -2.893381   -3.822491    1.689433 H         1 <1>         0.093773 
    115 H          -2.845124   -2.962097    4.082904 H         1 <1>         0.067477 
    116 H           4.142263    4.186015   -5.344568 H         1 <1>         0.094259 
    117 H          -4.817086   -3.855766    5.510070 H         1 <1>         0.064781 
    118 H          -6.873436   -4.442679    1.775945 H         1 <1>         0.072940 
    119 H          -7.002464   -4.153418    4.269437 H         1 <1>         0.065129 
    120 H           5.111831    2.598231   -6.994083 H         1 <1>         0.067109 
    121 H           3.484531    1.672869   -8.685023 H         1 <1>         0.064758 
    122 H           0.344322    2.857265   -6.019123 H         1 <1>         0.064668 
    123 H           1.119806    1.209451   -7.806704 H         1 <1>         0.064673 
    124 H          -1.906274   -4.438774    5.545124 H         1 <1>         0.093754 
    125 H          -6.052472   -1.890375    4.934993 H         1 <1>         0.210005 
    126 H          -5.592216   -6.139093    4.511576 H         1 <1>         0.210020 
    127 H           4.466874    4.804038   -7.673492 H         1 <1>         0.210111 
    128 H          -3.932393   -5.792091    6.437544 H         1 <1>         0.067095 
    129 H           0.999493    1.468105   -4.067541 H         1 <1>         0.058370 
    130 H           2.199040    0.610046   -5.044539 H         1 <1>         0.058370 
    131 H           3.152091   -0.242102   -7.328581 H         1 <1>         0.210005 
    132 H          -3.566446   -8.273121    6.477078 H         1 <1>         0.064758 
    133 H           1.527989    3.097760   -9.220935 H         1 <1>         0.210004 
    134 H          -0.262516   -7.663448    3.828618 H         1 <1>         0.064668 
    135 H          -5.676683   -2.124136    0.542354 H         1 <1>         0.220293 
    136 H          -2.171929   -9.222640    4.518379 H         1 <1>         0.064673 
    137 H          -1.960039   -5.517257    7.754683 H         1 <1>         0.210110 
    138 H          -0.614102    0.589874   -5.593223 H         1 <1>         0.209508 
    139 H          -1.533154   -6.514728    1.982797 H         1 <1>         0.058370 
    140 H          -3.058140   -7.096675    2.686120 H         1 <1>         0.058370 
    141 H          -4.573023   -8.486888    4.343188 H         1 <1>         0.210005 
    142 H          -1.274833   -9.134803    6.734064 H         1 <1>         0.210004 
    143 H          -0.976093   -8.841193    1.780642 H         1 <1>         0.209508 
@<TRIPOS>BOND
     1    1   35 1    
     2   50    1 1    
     3   47    2 1    
     4    2   52 1    
     5   47    3 2    
     6   50    4 1    
     7    4   54 1    
     8    5   51 1    
     9   60    5 1    
    10   52    6 1    
    11    6   58 1    
    12   53    7 1    
    13    7  125 1    
    14   55    8 1    
    15    8  126 1    
    16   56    9 1    
    17    9  127 1    
    18   57   10 1    
    19   10  131 1    
    20   11   60 1    
    21   65   11 1    
    22   59   12 1    
    23   12  133 1    
    24   61   13 1    
    25   13  135 1    
    26   61   14 2    
    27   62   15 1    
    28   15  137 1    
    29   63   16 1    
    30   16  138 1    
    31   64   17 1    
    32   17  141 1    
    33   66   18 1    
    34   18  142 1    
    35   67   19 1    
    36   19  143 1    
    37   21   20 1    
    38   20   23 1    
    39   25   20 1    
    40   20   34 1    
    41   22   21 1    
    42   21   30 1    
    43   21   68 1    
    44   24   22 1    
    45   31   22 1    
    46   22   37 1    
    47   23   28 1    
    48   23   32 1    
    49   23   40 1    
    50   26   24 1    
    51   24   27 1    
    52   24   69 1    
    53   27   25 1    
    54   25   70 1    
    55   25   71 1    
    56   35   26 1    
    57   26   44 1    
    58   26   45 1    
    59   27   72 1    
    60   27   73 1    
    61   28   29 1    
    62   38   28 2    
    63   29   33 1    
    64   29   41 1    
    65   29   74 1    
    66   30   38 1    
    67   30   75 1    
    68   30   76 1    
    69   39   31 1    
    70   31   77 1    
    71   31   78 1    
    72   32   36 1    
    73   32   79 1    
    74   32   80 1    
    75   36   33 1    
    76   33   42 1    
    77   33   47 1    
    78   34   81 1    
    79   34   82 1    
    80   34   83 1    
    81   35   39 1    
    82   35   84 1    
    83   36   85 1    
    84   36   86 1    
    85   37   87 1    
    86   37   88 1    
    87   37   89 1    
    88   38   90 1    
    89   39   91 1    
    90   39   92 1    
    91   40   93 1    
    92   40   94 1    
    93   40   95 1    
    94   41   43 1    
    95   41   96 1    
    96   41   97 1    
    97   42   46 1    
    98   42   98 1    
    99   42   99 1    
   100   43   46 1    
   101   43   48 1    
   102   43   49 1    
   103   44  100 1    
   104   44  101 1    
   105   44  105 1    
   106   45  102 1    
   107   45  103 1    
   108   45  104 1    
   109   46  106 1    
   110   46  107 1    
   111   48  110 1    
   112   48  111 1    
   113   48  112 1    
   114   49  108 1    
   115   49  109 1    
   116   49  113 1    
   117   51   50 1    
   118   50  114 1    
   119   51   53 1    
   120   51  115 1    
   121   52   56 1    
   122   52  116 1    
   123   53   55 1    
   124   53  117 1    
   125   55   54 1    
   126   54   61 1    
   127   54  118 1    
   128   55  119 1    
   129   56   57 1    
   130   56  120 1    
   131   57   59 1    
   132   57  121 1    
   133   58   59 1    
   134   58   63 1    
   135   58  122 1    
   136   59  123 1    
   137   60   62 1    
   138   60  124 1    
   139   64   62 1    
   140   62  128 1    
   141   63  129 1    
   142   63  130 1    
   143   66   64 1    
   144   64  132 1    
   145   65   66 1    
   146   65   67 1    
   147   65  134 1    
   148   66  136 1    
   149   67  139 1    
   150   67  140 1    
@<TRIPOS>SUBSTRUCTURE
     1 ****       20 TEMP              0 ****  ****    0 ROOT 
@<TRIPOS>NORMAL
@<TRIPOS>FF_PBC
FORCE_FIELD_SETUP_FEATURE Force Field Setup information
v1.0  0 0.000000 0.000000 0.000000 0.000000 0.000000 0.000000 NONE 0 0 0 0 1 0 0 0 0 0 0 0 0
