@<TRIPOS>MOLECULE
MOL004836
   34    35     1     1     0
SMALL
GASTEIGER


@<TRIPOS>ATOM
      1 C           1.082903    0.179023   -0.613106 C.ar      1 <1>         0.005226 
      2 C           1.572634   -0.972295    0.182088 C.ar      1 <1>         0.085366 
      3 C           1.940612    1.422570   -0.685213 C.2       1 <1>        -0.048494 
      4 C          -0.157333    0.095569   -1.262510 C.ar      1 <1>        -0.049697 
      5 C           0.749893   -2.081985    0.388009 C.ar      1 <1>        -0.001343 
      6 O           2.858458   -0.942427    0.722688 O.3       1 <1>        -0.347243 
      7 C           1.475055    2.667113   -0.490724 C.2       1 <1>        -0.013715 
      8 C          -1.029516   -1.082413   -1.043633 C.ar      1 <1>        -0.031221 
      9 C          -0.601041   -2.128486   -0.214329 C.ar      1 <1>         0.075062 
     10 C           3.799827   -1.770641    0.018656 C.3       1 <1>         0.043052 
     11 C           0.097131    3.086416   -0.155040 C.2       1 <1>         0.186081 
     12 O          -1.431683   -3.215774    0.048359 O.3       1 <1>        -0.359749 
     13 C          -0.931592    2.144600    0.435571 C.ar      1 <1>         0.021815 
     14 O          -0.232406    4.238967   -0.377328 O.2       1 <1>        -0.287281 
     15 C          -2.319922    2.192020   -0.082954 C.ar      1 <1>        -0.048509 
     16 C          -0.598427    1.222622    1.437945 C.ar      1 <1>        -0.048509 
     17 C          -3.274564    1.272710    0.367221 C.ar      1 <1>        -0.031268 
     18 C          -1.610906    0.248604    1.912444 C.ar      1 <1>        -0.031268 
     19 C          -2.904733    0.254571    1.383404 C.ar      1 <1>         0.072619 
     20 O          -3.826911   -0.697503    1.821035 O.3       1 <1>        -0.359832 
     21 H           3.001659    1.271399   -0.892851 H         1 <1>         0.062539 
     22 H          -0.494053    0.899995   -1.907948 H         1 <1>         0.062503 
     23 H           1.098885   -2.915165    0.985841 H         1 <1>         0.066928 
     24 H           2.188313    3.486541   -0.591799 H         1 <1>         0.065602 
     25 H          -2.005975   -1.125254   -1.513654 H         1 <1>         0.064340 
     26 H           4.787403   -1.651253    0.487604 H         1 <1>         0.052870 
     27 H           3.514547   -2.832605    0.069742 H         1 <1>         0.052870 
     28 H           3.872465   -1.467531   -1.037693 H         1 <1>         0.052870 
     29 H          -2.320289   -2.938910    0.247263 H         1 <1>         0.217315 
     30 H          -2.592672    2.940997   -0.819918 H         1 <1>         0.062539 
     31 H           0.402215    1.204252    1.858235 H         1 <1>         0.062539 
     32 H          -4.284003    1.311059   -0.028480 H         1 <1>         0.064339 
     33 H          -1.346738   -0.483822    2.666820 H         1 <1>         0.064339 
     34 H          -4.679386   -0.620872    1.408109 H         1 <1>         0.217313 
@<TRIPOS>BOND
     1    1    2 1    
     2    1    3 1    
     3    1    4 2    
     4    2    5 2    
     5    2    6 1    
     6    3    7 2    
     7    3   21 1    
     8    4    8 1    
     9    4   22 1    
    10    5    9 1    
    11    5   23 1    
    12    6   10 1    
    13    7   11 1    
    14    7   24 1    
    15    8    9 2    
    16    8   25 1    
    17    9   12 1    
    18   10   26 1    
    19   10   27 1    
    20   10   28 1    
    21   11   13 1    
    22   11   14 2    
    23   12   29 1    
    24   13   15 1    
    25   13   16 2    
    26   15   17 2    
    27   15   30 1    
    28   16   18 1    
    29   16   31 1    
    30   17   19 1    
    31   17   32 1    
    32   18   19 2    
    33   18   33 1    
    34   19   20 1    
    35   20   34 1    
@<TRIPOS>SUBSTRUCTURE
     1 ****        1 TEMP              0 ****  ****    0 ROOT 
@<TRIPOS>NORMAL
@<TRIPOS>FF_PBC
FORCE_FIELD_SETUP_FEATURE Force Field Setup information
v1.0  0 0.000000 0.000000 0.000000 0.000000 0.000000 0.000000 NONE 0 0 0 0 1 0 0 0 0 0 0 0 0
