@<TRIPOS>MOLECULE
MOL004553
   38    39     1     1     0
SMALL
GASTEIGER


@<TRIPOS>ATOM
      1 C          -2.421557    0.454000   -2.216382 C.3       1 <1>         0.011313 
      2 C          -3.148201   -0.245077   -1.106692 C.2       1 <1>         0.134161 
      3 C          -2.346442   -1.211312   -0.278720 C.3       1 <1>         0.009167 
      4 C          -0.825225   -0.875069   -0.331097 C.3       1 <1>        -0.024384 
      5 C          -0.622348    0.665491   -0.368725 C.3       1 <1>        -0.008557 
      6 C          -1.259450    1.332026   -1.649614 C.3       1 <1>        -0.023059 
      7 C           0.878745    1.015789   -0.152109 C.3       1 <1>         0.054225 
      8 O           1.400328    0.399883    1.038585 O.3       1 <1>        -0.351005 
      9 C           1.359050   -1.038192    0.984850 C.3       1 <1>         0.159380 
     10 C          -0.115114   -1.489136    0.907688 C.3       1 <1>         0.001955 
     11 H          -1.146257    1.035030    0.529499 H         1 <1>         0.033103 
     12 C          -1.829930    2.731738   -1.263724 C.3       1 <1>        -0.059091 
     13 C          -0.240624    1.536105   -2.813881 C.3       1 <1>        -0.059091 
     14 O          -4.330453   -0.038728   -0.885044 O.2       1 <1>        -0.297382 
     15 H          -0.372531   -1.297487   -1.244304 H         1 <1>         0.030990 
     16 O           1.914019   -1.570936    2.201331 O.3       1 <1>        -0.351575 
     17 C           3.271935   -1.152718    2.439976 C.3       1 <1>         0.047829 
     18 C           3.750974   -1.818998    3.751356 C.3       1 <1>        -0.041468 
     19 H          -3.122867    1.050254   -2.821393 H         1 <1>         0.034687 
     20 H          -2.033882   -0.345022   -2.867394 H         1 <1>         0.034687 
     21 H          -2.727865   -1.115441    0.750006 H         1 <1>         0.034435 
     22 H          -2.529940   -2.242638   -0.618208 H         1 <1>         0.034435 
     23 H           0.997309    2.103138   -0.027722 H         1 <1>         0.056369 
     24 H           1.508119    0.696100   -0.996304 H         1 <1>         0.056369 
     25 H           1.922152   -1.433560    0.121368 H         1 <1>         0.090938 
     26 H          -0.169882   -2.589474    0.875697 H         1 <1>         0.031680 
     27 H          -0.597228   -1.145059    1.836855 H         1 <1>         0.031680 
     28 H          -2.228626    3.256441   -2.145712 H         1 <1>         0.023519 
     29 H          -1.046864    3.363922   -0.818931 H         1 <1>         0.023519 
     30 H          -2.648644    2.627692   -0.534658 H         1 <1>         0.023519 
     31 H           0.251362    0.587613   -3.078408 H         1 <1>         0.023519 
     32 H          -0.758567    1.907705   -3.712037 H         1 <1>         0.023519 
     33 H           0.530576    2.276846   -2.554343 H         1 <1>         0.023519 
     34 H           3.330754   -0.056896    2.550191 H         1 <1>         0.055790 
     35 H           3.931119   -1.464663    1.612839 H         1 <1>         0.055790 
     36 H           4.786683   -1.523216    3.981074 H         1 <1>         0.025173 
     37 H           3.706983   -2.914790    3.651904 H         1 <1>         0.025173 
     38 H           3.099623   -1.513599    4.584980 H         1 <1>         0.025173 
@<TRIPOS>BOND
     1    1    2 1    
     2    1    6 1    
     3    1   19 1    
     4    1   20 1    
     5    2    3 1    
     6    2   14 2    
     7    3    4 1    
     8    3   21 1    
     9    3   22 1    
    10    4    5 1    
    11    4   10 1    
    12    4   15 1    
    13    5    6 1    
    14    5    7 1    
    15    5   11 1    
    16    6   12 1    
    17    6   13 1    
    18    7    8 1    
    19    7   23 1    
    20    7   24 1    
    21    8    9 1    
    22    9   10 1    
    23    9   16 1    
    24    9   25 1    
    25   10   26 1    
    26   10   27 1    
    27   12   28 1    
    28   12   29 1    
    29   12   30 1    
    30   13   31 1    
    31   13   32 1    
    32   13   33 1    
    33   16   17 1    
    34   17   18 1    
    35   17   34 1    
    36   17   35 1    
    37   18   36 1    
    38   18   37 1    
    39   18   38 1    
@<TRIPOS>SUBSTRUCTURE
     1 ****        1 TEMP              0 ****  ****    0 ROOT 
@<TRIPOS>NORMAL
@<TRIPOS>FF_PBC
FORCE_FIELD_SETUP_FEATURE Force Field Setup information
v1.0  0 0.000000 0.000000 0.000000 0.000000 0.000000 0.000000 NONE 0 0 0 0 1 0 0 0 0 0 0 0 0
