@<TRIPOS>MOLECULE
MOL000695
   42    44     1     1     0
SMALL
GASTEIGER


@<TRIPOS>ATOM
      1 C           0.987716   -0.707261   -0.323181 C.3       1 <1>         0.000323 
      2 C           0.713871    0.838147   -0.366183 C.3       1 <1>         0.077032 
      3 C          -0.411709   -1.401873   -0.287481 C.3       1 <1>        -0.030152 
      4 C           1.755044   -1.103112    0.981062 C.3       1 <1>        -0.044459 
      5 C           1.895514   -1.205102   -1.500321 C.3       1 <1>        -0.056661 
      6 C           0.141037    1.306278    1.039407 C.3       1 <1>        -0.002735 
      7 C          -0.151006    1.173089   -1.638118 C.3       1 <1>        -0.022712 
      8 O           1.994310    1.459566   -0.604711 O.3       1 <1>        -0.387484 
      9 C          -1.213534   -0.888311    0.954966 C.3       1 <1>        -0.045957 
     10 C          -1.190374   -1.203367   -1.622833 C.3       1 <1>        -0.040361 
     11 C           0.900348   -0.837776    2.248438 C.3       1 <1>        -0.049032 
     12 C          -0.316168    0.029700    1.832437 C.3       1 <1>        -0.032961 
     13 C           1.227206    2.061873    1.886401 C.3       1 <1>        -0.056924 
     14 C          -1.033538    2.339637    0.963931 C.3       1 <1>        -0.056924 
     15 C          -1.419022    0.305978   -1.907663 C.3       1 <1>        -0.047557 
     16 C          -2.527912   -1.998660   -1.659088 C.3       1 <1>        -0.062144 
     17 H          -0.229915   -2.485257   -0.175176 H         1 <1>         0.030960 
     18 H          -0.867495    0.315475    2.745344 H         1 <1>         0.030693 
     19 H           2.028881   -2.171541    0.961944 H         1 <1>         0.027159 
     20 H           2.701011   -0.541611    1.026849 H         1 <1>         0.027159 
     21 H           1.972457   -2.302887   -1.476527 H         1 <1>         0.023605 
     22 H           1.556634   -0.929423   -2.504548 H         1 <1>         0.023605 
     23 H           2.912038   -0.796334   -1.394962 H         1 <1>         0.023605 
     24 H          -0.438176    2.234316   -1.648109 H         1 <1>         0.029327 
     25 H           0.496652    1.057720   -2.519656 H         1 <1>         0.029327 
     26 H           1.942246    2.400231   -0.735384 H         1 <1>         0.210207 
     27 H          -1.565826   -1.749398    1.548098 H         1 <1>         0.027104 
     28 H          -2.120045   -0.330555    0.702051 H         1 <1>         0.027104 
     29 H          -0.595253   -1.627443   -2.447070 H         1 <1>         0.030098 
     30 H           1.497246   -0.366643    3.045497 H         1 <1>         0.026830 
     31 H           0.537371   -1.788932    2.674216 H         1 <1>         0.026830 
     32 H           0.893057    2.172280    2.929874 H         1 <1>         0.023596 
     33 H           1.412010    3.075773    1.500299 H         1 <1>         0.023596 
     34 H           2.201911    1.559348    1.902224 H         1 <1>         0.023596 
     35 H          -0.722786    3.259227    0.445647 H         1 <1>         0.023596 
     36 H          -1.930841    1.966207    0.466306 H         1 <1>         0.023596 
     37 H          -1.346470    2.631793    1.978455 H         1 <1>         0.023596 
     38 H          -1.715551    0.423884   -2.964461 H         1 <1>         0.026883 
     39 H          -2.277938    0.669968   -1.333593 H         1 <1>         0.026883 
     40 H          -3.004730   -1.887345   -2.645836 H         1 <1>         0.023250 
     41 H          -2.339240   -3.070002   -1.487345 H         1 <1>         0.023250 
     42 H          -3.241649   -1.650707   -0.899267 H         1 <1>         0.023250 
@<TRIPOS>BOND
     1    1    2 1    
     2    1    3 1    
     3    1    4 1    
     4    1    5 1    
     5    2    6 1    
     6    2    7 1    
     7    2    8 1    
     8    3    9 1    
     9    3   10 1    
    10    3   17 1    
    11    4   11 1    
    12    4   19 1    
    13    4   20 1    
    14    5   21 1    
    15    5   22 1    
    16    5   23 1    
    17    6   12 1    
    18    6   13 1    
    19    6   14 1    
    20    7   15 1    
    21    7   24 1    
    22    7   25 1    
    23    8   26 1    
    24    9   12 1    
    25    9   27 1    
    26    9   28 1    
    27   10   15 1    
    28   10   16 1    
    29   10   29 1    
    30   11   12 1    
    31   11   30 1    
    32   11   31 1    
    33   12   18 1    
    34   13   32 1    
    35   13   33 1    
    36   13   34 1    
    37   14   35 1    
    38   14   36 1    
    39   14   37 1    
    40   15   38 1    
    41   15   39 1    
    42   16   40 1    
    43   16   41 1    
    44   16   42 1    
@<TRIPOS>SUBSTRUCTURE
     1 ****        1 TEMP              0 ****  ****    0 ROOT 
@<TRIPOS>NORMAL
@<TRIPOS>FF_PBC
FORCE_FIELD_SETUP_FEATURE Force Field Setup information
v1.0  0 0.000000 0.000000 0.000000 0.000000 0.000000 0.000000 NONE 0 0 0 0 1 0 0 0 0 0 0 0 0
