@<TRIPOS>MOLECULE
MOL005818
   28    27     1     1     0
SMALL
GASTEIGER


@<TRIPOS>ATOM
      1 C           0.283763    3.244044   -0.000044 C.2       1 <1>        -0.099710 
      2 C          -0.833648    2.502492   -0.000149 C.2       1 <1>        -0.079666 
      3 C          -0.865811    0.984566   -0.000209 C.3       1 <1>        -0.031492 
      4 C           0.513473    0.263058   -0.000068 C.3       1 <1>        -0.040761 
      5 C           0.497610   -1.305208    0.000083 C.3       1 <1>        -0.016844 
      6 C           1.947031   -1.774179   -0.000057 C.2       1 <1>        -0.085435 
      7 C           2.334415   -3.057162   -0.000055 C.2       1 <1>        -0.102120 
      8 C          -0.204413   -1.857096    1.275978 C.3       1 <1>        -0.056348 
      9 C          -0.204802   -1.857318   -1.275492 C.3       1 <1>        -0.056348 
     10 C          -2.177766    3.197586   -0.000243 C.3       1 <1>        -0.044040 
     11 H           0.212112    4.331609   -0.000014 H         1 <1>         0.053432 
     12 H           1.292050    2.836470    0.000018 H         1 <1>         0.053432 
     13 H          -1.434014    0.689123   -0.894099 H         1 <1>         0.031008 
     14 H          -1.434215    0.689037    0.893519 H         1 <1>         0.031008 
     15 H           1.063925    0.597623    0.894736 H         1 <1>         0.027642 
     16 H           1.063986    0.597494   -0.894886 H         1 <1>         0.027642 
     17 H           2.749065   -1.033005   -0.000151 H         1 <1>         0.057168 
     18 H           3.394920   -3.311948   -0.000163 H         1 <1>         0.053191 
     19 H           1.635764   -3.891682    0.000042 H         1 <1>         0.053191 
     20 H          -0.136713   -2.953185    1.327742 H         1 <1>         0.023794 
     21 H          -1.273392   -1.602495    1.288171 H         1 <1>         0.023794 
     22 H           0.267519   -1.441945    2.179626 H         1 <1>         0.023794 
     23 H          -0.137109   -2.953415   -1.327115 H         1 <1>         0.023794 
     24 H           0.266830   -1.442293   -2.179356 H         1 <1>         0.023794 
     25 H          -1.273793   -1.602737   -1.287369 H         1 <1>         0.023794 
     26 H          -3.018051    2.486452    0.000316 H         1 <1>         0.027427 
     27 H          -2.264579    3.831656   -0.895687 H         1 <1>         0.027427 
     28 H          -2.264261    3.832655    0.894523 H         1 <1>         0.027427 
@<TRIPOS>BOND
     1    1    2 2    
     2    1   11 1    
     3    1   12 1    
     4    2    3 1    
     5    2   10 1    
     6    3    4 1    
     7    3   13 1    
     8    3   14 1    
     9    4    5 1    
    10    4   15 1    
    11    4   16 1    
    12    5    6 1    
    13    5    8 1    
    14    5    9 1    
    15    6    7 2    
    16    6   17 1    
    17    7   18 1    
    18    7   19 1    
    19    8   20 1    
    20    8   21 1    
    21    8   22 1    
    22    9   23 1    
    23    9   24 1    
    24    9   25 1    
    25   10   26 1    
    26   10   27 1    
    27   10   28 1    
@<TRIPOS>SUBSTRUCTURE
     1 ****        1 TEMP              0 ****  ****    0 ROOT 
@<TRIPOS>NORMAL
@<TRIPOS>FF_PBC
FORCE_FIELD_SETUP_FEATURE Force Field Setup information
v1.0  0 0.000000 0.000000 0.000000 0.000000 0.000000 0.000000 NONE 0 0 0 0 1 0 0 0 0 0 0 0 0
