@<TRIPOS>MOLECULE
MOL000899
   36    37     1     1     0
SMALL
GASTEIGER


@<TRIPOS>ATOM
      1 C          -2.071193    1.249339    1.770584 C.3       1 <1>        -0.028553 
      2 C          -2.088568   -0.172856    2.423512 C.3       1 <1>        -0.030826 
      3 C          -1.328246   -1.141268    1.535000 C.2       1 <1>        -0.084139 
      4 C           0.005562   -1.277812    1.446475 C.2       1 <1>        -0.063897 
      5 C          -0.583713    1.011324   -0.180538 C.2       1 <1>        -0.080404 
      6 C          -1.844534    1.054406    0.280989 C.2       1 <1>        -0.075928 
      7 C           0.609720   -2.147680    0.362209 C.3       1 <1>         0.084589 
      8 C           1.524294   -1.342311   -0.573868 C.ar      1 <1>         0.339851 
      9 C           1.187236   -0.208343   -1.377794 C.ar      1 <1>         0.066897 
     10 C          -0.149795    0.532816   -1.539962 C.3       1 <1>        -0.000176 
     11 C          -3.080757    0.838738   -0.564190 C.3       1 <1>        -0.043768 
     12 C           0.998504   -0.588572    2.359731 C.3       1 <1>        -0.043194 
     13 O           2.888007   -1.698366   -0.718655 O.2       1 <1>        -0.216843 
     14 C           3.377390   -0.758710   -1.628294 C.ar      1 <1>         0.324642 
     15 C           2.444782    0.140821   -2.056838 C.ar      1 <1>         0.057490 
     16 C           2.658423    1.287852   -3.046301 C.3       1 <1>        -0.030912 
     17 H          -3.001693    1.800293    1.982693 H         1 <1>         0.031285 
     18 H          -1.251277    1.838118    2.212215 H         1 <1>         0.031285 
     19 H          -3.134203   -0.520361    2.477970 H         1 <1>         0.031044 
     20 H          -1.710169   -0.156453    3.457431 H         1 <1>         0.031044 
     21 H          -1.953724   -1.738337    0.868939 H         1 <1>         0.057176 
     22 H           0.228079    1.304322    0.484929 H         1 <1>         0.057483 
     23 H          -0.139852   -2.639624   -0.275943 H         1 <1>         0.044543 
     24 H           1.208510   -2.936295    0.842557 H         1 <1>         0.044543 
     25 H          -0.856559   -0.185440   -1.980362 H         1 <1>         0.035859 
     26 H          -0.043733    1.396544   -2.212684 H         1 <1>         0.035859 
     27 H          -3.834364    1.601714   -0.318644 H         1 <1>         0.027436 
     28 H          -2.881755    0.922213   -1.641535 H         1 <1>         0.027436 
     29 H          -3.510065   -0.152297   -0.358179 H         1 <1>         0.027436 
     30 H           0.553782    0.199027    2.981592 H         1 <1>         0.027449 
     31 H           1.435076   -1.344662    3.029210 H         1 <1>         0.027449 
     32 H           1.815827   -0.130092    1.783976 H         1 <1>         0.027449 
     33 H           4.411230   -0.749908   -1.961838 H         1 <1>         0.176275 
     34 H           3.695442    1.302178   -3.414341 H         1 <1>         0.028039 
     35 H           1.978526    1.164579   -3.902617 H         1 <1>         0.028039 
     36 H           2.444112    2.245000   -2.547530 H         1 <1>         0.028039 
@<TRIPOS>BOND
     1    1    2 1    
     2    1    6 1    
     3    1   17 1    
     4    1   18 1    
     5    2    3 1    
     6    2   19 1    
     7    2   20 1    
     8    3    4 2    
     9    3   21 1    
    10    4    7 1    
    11    4   12 1    
    12    6    5 2    
    13    5   10 1    
    14    5   22 1    
    15    6   11 1    
    16    7    8 1    
    17    7   23 1    
    18    7   24 1    
    19    8    9 2    
    20    8   13 1    
    21    9   10 1    
    22    9   15 1    
    23   10   25 1    
    24   10   26 1    
    25   11   27 1    
    26   11   28 1    
    27   11   29 1    
    28   12   30 1    
    29   12   31 1    
    30   12   32 1    
    31   13   14 1    
    32   14   15 2    
    33   14   33 1    
    34   15   16 1    
    35   16   34 1    
    36   16   35 1    
    37   16   36 1    
@<TRIPOS>SUBSTRUCTURE
     1 ****        1 TEMP              0 ****  ****    0 ROOT 
@<TRIPOS>NORMAL
@<TRIPOS>FF_PBC
FORCE_FIELD_SETUP_FEATURE Force Field Setup information
v1.0  0 0.000000 0.000000 0.000000 0.000000 0.000000 0.000000 NONE 0 0 0 0 1 0 0 0 0 0 0 0 0
