@<TRIPOS>MOLECULE
MOL012246
   36    38     1     1     0
SMALL
GASTEIGER


@<TRIPOS>ATOM
      1 C           4.814329   -0.415836   -0.596002 C.3       1 <1>         0.097272 
      2 C           4.992514   -1.816911    0.029962 C.3       1 <1>         0.041567 
      3 C           3.754608   -2.613663   -0.266657 C.2       1 <1>         0.170991 
      4 O           3.840690   -3.817048   -0.447024 O.2       1 <1>        -0.291782 
      5 C           2.427488   -1.892345   -0.330996 C.ar      1 <1>         0.079767 
      6 C           1.149787   -2.625547   -0.511515 C.ar      1 <1>         0.088135 
      7 C          -0.065295   -1.899559   -0.560646 C.ar      1 <1>         0.001232 
      8 C          -0.064991   -0.424809   -0.432372 C.ar      1 <1>         0.107515 
      9 C           1.152015    0.264500   -0.260128 C.ar      1 <1>         0.136291 
     10 C           2.431999   -0.485092   -0.214257 C.ar      1 <1>         0.122290 
     11 O           3.637441    0.206537   -0.053928 O.3       1 <1>        -0.333005 
     12 C           6.040614    0.447140   -0.276999 C.ar      1 <1>        -0.017819 
     13 C           7.153860    0.554380   -1.252432 C.ar      1 <1>        -0.053661 
     14 C           8.276746    1.346229   -0.960100 C.ar      1 <1>        -0.031601 
     15 C           8.366302    2.082248    0.322094 C.ar      1 <1>         0.072600 
     16 C           7.306408    1.980346    1.255044 C.ar      1 <1>        -0.031601 
     17 C           6.122161    1.144593    0.945256 C.ar      1 <1>        -0.053661 
     18 O           1.136009    1.656421   -0.137581 O.3       1 <1>        -0.342940 
     19 C           1.448127    2.143284    1.178060 C.3       1 <1>         0.043243 
     20 O           9.496526    2.861512    0.582830 O.3       1 <1>        -0.359832 
     21 O          -1.276956    0.267473   -0.482326 O.3       1 <1>        -0.357150 
     22 O           1.161365   -4.017733   -0.629212 O.3       1 <1>        -0.358964 
     23 H           4.697529   -0.494604   -1.690392 H         1 <1>         0.065572 
     24 H           5.109207   -1.732713    1.121158 H         1 <1>         0.037400 
     25 H           5.883417   -2.310919   -0.389795 H         1 <1>         0.037400 
     26 H          -1.012367   -2.410516   -0.691695 H         1 <1>         0.067008 
     27 H           7.104201    0.019813   -2.195612 H         1 <1>         0.062190 
     28 H           9.090093    1.424956   -1.673353 H         1 <1>         0.064329 
     29 H           7.348841    2.509242    2.200924 H         1 <1>         0.064329 
     30 H           5.317044    1.073553    1.669076 H         1 <1>         0.062190 
     31 H           1.385663    3.241303    1.159792 H         1 <1>         0.052872 
     32 H           0.722187    1.761119    1.912708 H         1 <1>         0.052872 
     33 H           2.464316    1.856909    1.488934 H         1 <1>         0.052872 
     34 H           9.473254    3.317895    1.416260 H         1 <1>         0.217313 
     35 H          -1.149294    1.210481   -0.434919 H         1 <1>         0.217424 
     36 H           0.312865   -4.413041   -0.794060 H         1 <1>         0.217342 
@<TRIPOS>BOND
     1    1    2 1    
     2    1   11 1    
     3    1   12 1    
     4    1   23 1    
     5    2    3 1    
     6    2   24 1    
     7    2   25 1    
     8    3    4 2    
     9    3    5 1    
    10    5    6 1    
    11    5   10 2    
    12    6    7 2    
    13    6   22 1    
    14    7    8 1    
    15    7   26 1    
    16    8    9 2    
    17    8   21 1    
    18    9   10 1    
    19    9   18 1    
    20   10   11 1    
    21   12   13 1    
    22   12   17 2    
    23   13   14 2    
    24   13   27 1    
    25   14   15 1    
    26   14   28 1    
    27   15   16 2    
    28   15   20 1    
    29   16   17 1    
    30   16   29 1    
    31   17   30 1    
    32   18   19 1    
    33   19   31 1    
    34   19   32 1    
    35   19   33 1    
    36   20   34 1    
    37   21   35 1    
    38   22   36 1    
@<TRIPOS>SUBSTRUCTURE
     1 ****        1 TEMP              0 ****  ****    0 ROOT 
@<TRIPOS>NORMAL
@<TRIPOS>FF_PBC
FORCE_FIELD_SETUP_FEATURE Force Field Setup information
v1.0  0 0.000000 0.000000 0.000000 0.000000 0.000000 0.000000 NONE 0 0 0 0 1 0 0 0 0 0 0 0 0
