@<TRIPOS>MOLECULE
MOL004987
   81    85     1     1     0
SMALL
GASTEIGER


@<TRIPOS>ATOM
      1 C          -5.385806    0.219261   -0.370039 C.3       1 <1>        -0.025831 
      2 C          -5.576673   -1.162261   -1.034144 C.3       1 <1>         0.060637 
      3 C          -4.723458   -2.287560   -0.353008 C.3       1 <1>        -0.005589 
      4 C          -3.891588    0.637196   -0.287121 C.3       1 <1>        -0.044720 
      5 C          -2.956439   -0.391398    0.438527 C.3       1 <1>        -0.024959 
      6 C          -3.224093   -1.789022   -0.237193 C.3       1 <1>        -0.027836 
      7 C          -2.184310   -2.834333    0.282192 C.3       1 <1>        -0.048609 
      8 C          -0.724484   -2.373438   -0.011702 C.3       1 <1>        -0.046268 
      9 C          -1.429413    0.004276    0.158494 C.3       1 <1>        -0.025736 
     10 C          -0.288665   -0.992821    0.602160 C.3       1 <1>        -0.019373 
     11 C           0.317097    1.869785    0.307671 C.2       1 <1>        -0.083647 
     12 C          -1.092564    1.458564    0.589857 C.3       1 <1>        -0.030614 
     13 C           1.351571    1.035761    0.106698 C.2       1 <1>        -0.063388 
     14 C           1.174089   -0.498125    0.098665 C.3       1 <1>        -0.005120 
     15 C           2.354647   -1.083123    0.964748 C.3       1 <1>        -0.042891 
     16 C           3.758137   -0.439670    0.774382 C.3       1 <1>        -0.046277 
     17 C           2.747250    1.682424   -0.056886 C.3       1 <1>        -0.013007 
     18 C           3.736397    1.100953    0.994348 C.3       1 <1>        -0.025453 
     19 C           5.190730    1.672732    0.848445 C.3       1 <1>        -0.046118 
     20 C           5.258879    2.939921   -0.043178 C.3       1 <1>        -0.038057 
     21 C           4.756731    2.639781   -1.488984 C.3       1 <1>         0.053721 
     22 C           3.373342    1.891238   -1.476759 C.3       1 <1>        -0.031533 
     23 C           4.627134    3.969530   -2.213888 C.2       1 <1>         0.265560 
     24 C           5.836594    1.800886   -2.254420 C.3       1 <1>        -0.050480 
     25 C          -4.795428   -3.552465   -1.279505 C.3       1 <1>        -0.057190 
     26 C          -5.377234   -2.707245    0.998677 C.3       1 <1>        -0.057190 
     27 C          -3.355545   -0.356333    1.962545 C.3       1 <1>        -0.059009 
     28 C          -0.270754   -1.208126    2.155779 C.3       1 <1>        -0.058491 
     29 C           3.220284    1.490817    2.422475 C.3       1 <1>        -0.059017 
     30 C           1.425350   -1.008699   -1.361040 C.3       1 <1>        -0.055324 
     31 H          -2.956080   -1.635097   -1.295340 H         1 <1>         0.031210 
     32 H          -1.323620    0.045279   -0.939362 H         1 <1>         0.031460 
     33 H           2.650485    2.732531    0.254970 H         1 <1>         0.035135 
     34 O          -7.001730   -1.379504   -0.964232 O.3       1 <1>        -0.391248 
     35 O           5.324579    4.268425   -3.173672 O.2       1 <1>        -0.264567 
     36 O           3.695923    4.801749   -1.742075 O.3       1 <1>        -0.330857 
     37 H          -5.917932    0.968759   -0.979235 H         1 <1>         0.029037 
     38 H          -5.893481    0.223308    0.602348 H         1 <1>         0.029037 
     39 H          -5.267472   -1.060147   -2.089757 H         1 <1>         0.059852 
     40 H          -3.885811    1.606281    0.237195 H         1 <1>         0.027149 
     41 H          -3.542312    0.803826   -1.318878 H         1 <1>         0.027149 
     42 H          -2.296678   -3.787019   -0.254442 H         1 <1>         0.026846 
     43 H          -2.327406   -3.081154    1.339585 H         1 <1>         0.026846 
     44 H          -0.023169   -3.164216    0.301086 H         1 <1>         0.027096 
     45 H          -0.731489   -2.335816   -1.110762 H         1 <1>         0.027096 
     46 H           0.454345    2.952952    0.300779 H         1 <1>         0.057198 
     47 H          -1.716210    2.174658    0.036082 H         1 <1>         0.031042 
     48 H          -1.231074    1.658147    1.659795 H         1 <1>         0.031042 
     49 H           2.431503   -2.172985    0.818348 H         1 <1>         0.027392 
     50 H           2.219416   -0.914946    2.035812 H         1 <1>         0.027392 
     51 H           4.145377   -0.674241   -0.228089 H         1 <1>         0.027096 
     52 H           4.464253   -0.886431    1.498935 H         1 <1>         0.027096 
     53 H           5.612110    1.934622    1.833658 H         1 <1>         0.027098 
     54 H           5.882316    0.923135    0.440140 H         1 <1>         0.027098 
     55 H           6.297631    3.307787   -0.082950 H         1 <1>         0.027550 
     56 H           4.672161    3.744365    0.427934 H         1 <1>         0.027550 
     57 H           2.632985    2.431010   -2.090213 H         1 <1>         0.028121 
     58 H           3.548641    0.955067   -1.998849 H         1 <1>         0.028121 
     59 H           5.552065    1.681483   -3.311438 H         1 <1>         0.023986 
     60 H           5.957508    0.791545   -1.837326 H         1 <1>         0.023986 
     61 H           6.819109    2.297607   -2.224733 H         1 <1>         0.023986 
     62 H          -4.370558   -4.444579   -0.798338 H         1 <1>         0.023587 
     63 H          -5.828325   -3.825112   -1.534019 H         1 <1>         0.023587 
     64 H          -4.266198   -3.387904   -2.230836 H         1 <1>         0.023587 
     65 H          -4.738410   -3.419695    1.538967 H         1 <1>         0.023587 
     66 H          -5.595897   -1.862819    1.659142 H         1 <1>         0.023587 
     67 H          -6.339478   -3.206059    0.811016 H         1 <1>         0.023587 
     68 H          -3.430162   -1.351384    2.413059 H         1 <1>         0.023525 
     69 H          -2.667535    0.232570    2.575748 H         1 <1>         0.023525 
     70 H          -4.325518    0.109996    2.160987 H         1 <1>         0.023525 
     71 H           0.391709   -2.039366    2.436522 H         1 <1>         0.023542 
     72 H          -1.208574   -1.531978    2.594579 H         1 <1>         0.023542 
     73 H           0.030399   -0.289441    2.680872 H         1 <1>         0.023542 
     74 H           3.371455    2.565724    2.601957 H         1 <1>         0.023525 
     75 H           3.767309    0.933009    3.197339 H         1 <1>         0.023525 
     76 H           2.147764    1.308049    2.564079 H         1 <1>         0.023525 
     77 H           1.412917   -2.103500   -1.434384 H         1 <1>         0.023829 
     78 H           2.411945   -0.794165   -1.750757 H         1 <1>         0.023829 
     79 H           0.700119   -0.575367   -2.063233 H         1 <1>         0.023829 
     80 H          -7.325810   -2.130383   -1.446493 H         1 <1>         0.209800 
     81 H           3.664493    5.612820   -2.239970 H         1 <1>         0.220226 
@<TRIPOS>BOND
     1    1    2 1    
     2    1    4 1    
     3    1   37 1    
     4    1   38 1    
     5    2    3 1    
     6    2   34 1    
     7    2   39 1    
     8    3    6 1    
     9    3   25 1    
    10    3   26 1    
    11    4    5 1    
    12    4   40 1    
    13    4   41 1    
    14    5    6 1    
    15    5    9 1    
    16    5   27 1    
    17    6    7 1    
    18    6   31 1    
    19    7    8 1    
    20    7   42 1    
    21    7   43 1    
    22    8   10 1    
    23    8   44 1    
    24    8   45 1    
    25    9   10 1    
    26    9   12 1    
    27    9   32 1    
    28   10   14 1    
    29   10   28 1    
    30   12   11 1    
    31   11   13 2    
    32   11   46 1    
    33   12   47 1    
    34   12   48 1    
    35   13   14 1    
    36   13   17 1    
    37   14   15 1    
    38   14   30 1    
    39   15   16 1    
    40   15   49 1    
    41   15   50 1    
    42   16   18 1    
    43   16   51 1    
    44   16   52 1    
    45   17   18 1    
    46   17   22 1    
    47   17   33 1    
    48   18   19 1    
    49   18   29 1    
    50   19   20 1    
    51   19   53 1    
    52   19   54 1    
    53   20   21 1    
    54   20   55 1    
    55   20   56 1    
    56   21   22 1    
    57   21   23 1    
    58   21   24 1    
    59   22   57 1    
    60   22   58 1    
    61   23   35 2    
    62   23   36 1    
    63   24   59 1    
    64   24   60 1    
    65   24   61 1    
    66   25   62 1    
    67   25   63 1    
    68   25   64 1    
    69   26   65 1    
    70   26   66 1    
    71   26   67 1    
    72   27   68 1    
    73   27   69 1    
    74   27   70 1    
    75   28   71 1    
    76   28   72 1    
    77   28   73 1    
    78   29   74 1    
    79   29   75 1    
    80   29   76 1    
    81   30   77 1    
    82   30   78 1    
    83   30   79 1    
    84   34   80 1    
    85   36   81 1    
@<TRIPOS>SUBSTRUCTURE
     1 ****        1 TEMP              0 ****  ****    0 ROOT 
@<TRIPOS>NORMAL
@<TRIPOS>FF_PBC
FORCE_FIELD_SETUP_FEATURE Force Field Setup information
v1.0  0 0.000000 0.000000 0.000000 0.000000 0.000000 0.000000 NONE 0 0 0 0 1 0 0 0 0 0 0 0 0
