@<TRIPOS>MOLECULE
MOL000437
   53    56     1     1     0
SMALL
GASTEIGER


@<TRIPOS>ATOM
      1 C          -0.759489    1.177113    0.832489 C.2       1 <1>         0.124041 
      2 C          -1.772716    0.328110    0.540975 C.2       1 <1>         0.157591 
      3 C          -3.124875    0.875647    0.300880 C.2       1 <1>         0.223405 
      4 C          -3.341210    2.365519    0.316338 C.ar      1 <1>         0.084562 
      5 C          -2.135381    3.156289    0.608260 C.ar      1 <1>         0.099001 
      6 O          -0.927624    2.511940    0.852118 O.3       1 <1>        -0.305121 
      7 C          -2.201098    4.551917    0.645364 C.ar      1 <1>        -0.000529 
      8 C          -3.491872    5.241794    0.391377 C.ar      1 <1>         0.077519 
      9 C          -4.642745    4.484304    0.118782 C.ar      1 <1>        -0.001302 
     10 C          -4.577813    3.000530    0.077355 C.ar      1 <1>         0.088401 
     11 O          -4.060355    0.120799    0.087007 O.2       1 <1>        -0.284261 
     12 O          -3.582453    6.634731    0.418420 O.3       1 <1>        -0.359667 
     13 O          -5.715263    2.238887   -0.194105 O.3       1 <1>        -0.358954 
     14 O          -1.652530   -1.018276    0.449415 O.3       1 <1>        -0.306082 
     15 C          -0.384415   -1.674979    0.273863 C.3       1 <1>         0.193914 
     16 C          -0.737115   -3.157726   -0.011595 C.3       1 <1>         0.134513 
     17 O          -1.410368   -3.736198    1.125609 O.3       1 <1>        -0.384091 
     18 C           0.548984   -3.965190   -0.307794 C.3       1 <1>         0.114074 
     19 O           0.173718   -5.310382   -0.662192 O.3       1 <1>        -0.386401 
     20 C           1.339654   -3.297971   -1.457285 C.3       1 <1>         0.111896 
     21 O           2.593097   -3.999743   -1.572690 O.3       1 <1>        -0.386488 
     22 C           1.558457   -1.789591   -1.155707 C.3       1 <1>         0.113017 
     23 O           0.313724   -1.114975   -0.858133 O.3       1 <1>        -0.340164 
     24 C           2.209116   -1.116304   -2.392544 C.3       1 <1>         0.073015 
     25 O           3.418861   -1.817982   -2.741445 O.3       1 <1>        -0.392366 
     26 C           0.668196    0.831433    1.186332 C.ar      1 <1>         0.010738 
     27 C           1.732083    1.162427    0.211959 C.ar      1 <1>        -0.019688 
     28 C           3.069723    0.872642    0.492428 C.ar      1 <1>         0.102828 
     29 C           3.434782    0.227125    1.779203 C.ar      1 <1>         0.102222 
     30 C           2.426661   -0.067611    2.722893 C.ar      1 <1>        -0.028769 
     31 C           1.010130    0.253965    2.423623 C.ar      1 <1>        -0.049435 
     32 O           4.777701   -0.073861    2.028309 O.3       1 <1>        -0.357274 
     33 O           4.053656    1.195481   -0.442764 O.3       1 <1>        -0.357261 
     34 H          -1.303631    5.119734    0.861853 H         1 <1>         0.066947 
     35 H          -5.579945    4.998432   -0.063087 H         1 <1>         0.066923 
     36 H          -2.752573    7.070300    0.577955 H         1 <1>         0.217316 
     37 H          -6.505534    2.752726   -0.315503 H         1 <1>         0.217342 
     38 H           0.198418   -1.693970    1.201255 H         1 <1>         0.094163 
     39 H          -1.395424   -3.182993   -0.897753 H         1 <1>         0.067108 
     40 H          -1.644120   -4.647559    0.971028 H         1 <1>         0.210111 
     41 H           1.172409   -3.979900    0.603575 H         1 <1>         0.064758 
     42 H           0.934686   -5.847758   -0.864521 H         1 <1>         0.210005 
     43 H           0.750953   -3.407215   -2.384459 H         1 <1>         0.064673 
     44 H           3.161098   -3.612432   -2.235633 H         1 <1>         0.210004 
     45 H           2.255035   -1.701756   -0.305366 H         1 <1>         0.064668 
     46 H           1.495264   -1.148043   -3.232063 H         1 <1>         0.058370 
     47 H           2.432401   -0.062025   -2.172862 H         1 <1>         0.058370 
     48 H           3.871360   -1.426011   -3.484072 H         1 <1>         0.209508 
     49 H           1.467506    1.641230   -0.723848 H         1 <1>         0.065076 
     50 H           2.677109   -0.531814    3.670567 H         1 <1>         0.064422 
     51 H           0.238622    0.040550    3.156745 H         1 <1>         0.062506 
     52 H           4.922044   -0.612306    2.798328 H         1 <1>         0.217422 
     53 H           4.923369    0.997973   -0.109297 H         1 <1>         0.217422 
@<TRIPOS>BOND
     1    1    2 2    
     2    1    6 1    
     3    1   26 1    
     4    2    3 1    
     5    2   14 1    
     6    3    4 1    
     7    3   11 2    
     8    4    5 1    
     9    4   10 2    
    10    5    6 1    
    11    5    7 2    
    12    7    8 1    
    13    7   34 1    
    14    8    9 2    
    15    8   12 1    
    16    9   10 1    
    17    9   35 1    
    18   10   13 1    
    19   12   36 1    
    20   13   37 1    
    21   14   15 1    
    22   15   16 1    
    23   15   23 1    
    24   15   38 1    
    25   16   17 1    
    26   16   18 1    
    27   16   39 1    
    28   17   40 1    
    29   18   19 1    
    30   18   20 1    
    31   18   41 1    
    32   19   42 1    
    33   20   21 1    
    34   20   22 1    
    35   20   43 1    
    36   21   44 1    
    37   22   23 1    
    38   22   24 1    
    39   22   45 1    
    40   24   25 1    
    41   24   46 1    
    42   24   47 1    
    43   25   48 1    
    44   26   27 1    
    45   26   31 2    
    46   27   28 2    
    47   27   49 1    
    48   28   29 1    
    49   28   33 1    
    50   29   30 2    
    51   29   32 1    
    52   30   31 1    
    53   30   50 1    
    54   31   51 1    
    55   32   52 1    
    56   33   53 1    
@<TRIPOS>SUBSTRUCTURE
     1 ****        1 TEMP              0 ****  ****    0 ROOT 
@<TRIPOS>NORMAL
@<TRIPOS>FF_PBC
FORCE_FIELD_SETUP_FEATURE Force Field Setup information
v1.0  0 0.000000 0.000000 0.000000 0.000000 0.000000 0.000000 NONE 0 0 0 0 1 0 0 0 0 0 0 0 0
