@<TRIPOS>MOLECULE
MOL004952
   69    72     1     1     0
SMALL
GASTEIGER


@<TRIPOS>ATOM
      1 C           3.372375    1.675124   -6.656019 C.ar      1 <1>        -0.031383 
      2 C           3.159513    0.835117   -5.453741 C.ar      1 <1>        -0.052161 
      3 C           3.250784   -0.561541   -5.530200 C.ar      1 <1>        -0.024759 
      4 C           3.619254   -1.195196   -6.821421 C.ar      1 <1>        -0.052161 
      5 C           3.811408   -0.399832   -7.958769 C.ar      1 <1>        -0.031383 
      6 C           3.679227    1.074735   -7.887145 C.ar      1 <1>         0.072617 
      7 C           2.947194   -1.356073   -4.278135 C.2       1 <1>        -0.050956 
      8 C           2.401934   -2.579312   -4.291775 C.2       1 <1>        -0.013708 
      9 C           2.015993   -3.315739   -3.071356 C.2       1 <1>         0.188543 
     10 C           1.390106   -2.604904   -1.885396 C.ar      1 <1>         0.051478 
     11 C           1.411180   -3.198930   -0.524716 C.ar      1 <1>         0.085807 
     12 C           0.841420   -2.494715    0.552790 C.ar      1 <1>        -0.001100 
     13 C           0.226593   -1.159232    0.365621 C.ar      1 <1>         0.081940 
     14 C           0.191806   -0.616180   -0.928421 C.ar      1 <1>        -0.030736 
     15 C           0.763453   -1.364072   -2.070493 C.ar      1 <1>        -0.046016 
     16 O          -0.295301   -0.481098    1.480238 O.3       1 <1>        -0.312458 
     17 C          -0.583775    0.924364    1.386769 C.3       1 <1>         0.194010 
     18 C          -1.104056    1.517818    2.719885 C.3       1 <1>         0.141013 
     19 C          -1.195918    3.062486    2.596157 C.3       1 <1>         0.114441 
     20 C           0.118779    3.672077    2.048448 C.3       1 <1>         0.111906 
     21 C           0.527073    2.954913    0.737456 C.3       1 <1>         0.113017 
     22 O           0.651450    1.543511    0.978565 O.3       1 <1>        -0.340158 
     23 C           1.892650    3.480396    0.227695 C.3       1 <1>         0.073015 
     24 O           1.757785    4.871423   -0.124795 O.3       1 <1>        -0.392366 
     25 O          -0.092019    5.080310    1.827341 O.3       1 <1>        -0.386488 
     26 O          -1.481789    3.627340    3.890742 O.3       1 <1>        -0.386391 
     27 O          -2.453383    1.040271    2.930229 O.3       1 <1>        -0.337746 
     28 O           1.995183   -4.452507   -0.322630 O.3       1 <1>        -0.359040 
     29 O           2.196209   -4.519893   -3.048892 O.2       1 <1>        -0.287193 
     30 O           3.862715    1.834113   -9.046688 O.3       1 <1>        -0.359832 
     31 C          -2.602341    0.154593    4.051110 C.3       1 <1>         0.188494 
     32 C          -4.018399   -0.466931    4.090306 C.3       1 <1>         0.138725 
     33 C          -3.787357   -1.896949    4.668981 C.3       1 <1>         0.142478 
     34 C          -2.251132   -1.961483    4.875544 C.3       1 <1>         0.084283 
     35 O          -1.757764   -0.995499    3.937229 O.3       1 <1>        -0.345676 
     36 C          -4.251056   -3.003773    3.678809 C.3       1 <1>         0.077754 
     37 O          -4.012230   -4.295202    4.273193 O.3       1 <1>        -0.392006 
     38 O          -4.915481    0.336793    4.881788 O.3       1 <1>        -0.383740 
     39 O          -4.492742   -2.057171    5.916397 O.3       1 <1>        -0.381246 
     40 H          -2.409374    0.691784    4.996064 H         1 <1>         0.093755 
     41 H           3.279633    2.751779   -6.571649 H         1 <1>         0.064338 
     42 H           2.916635    1.315147   -4.511063 H         1 <1>         0.062423 
     43 H           3.749274   -2.269099   -6.892454 H         1 <1>         0.062423 
     44 H           4.065545   -0.858935   -8.907839 H         1 <1>         0.064338 
     45 H           3.166436   -0.877704   -3.324423 H         1 <1>         0.062459 
     46 H           2.206932   -3.086352   -5.234354 H         1 <1>         0.065602 
     47 H           0.847050   -2.923590    1.547536 H         1 <1>         0.066931 
     48 H          -0.238946    0.352873   -1.139713 H         1 <1>         0.064350 
     49 H           0.681532   -0.921629   -3.056977 H         1 <1>         0.062620 
     50 H          -1.399586    1.071951    0.662517 H         1 <1>         0.094170 
     51 H          -0.393103    1.275442    3.526565 H         1 <1>         0.067490 
     52 H          -2.013192    3.302437    1.894345 H         1 <1>         0.064768 
     53 H           0.904871    3.518244    2.806221 H         1 <1>         0.064673 
     54 H          -0.220812    3.150815   -0.050123 H         1 <1>         0.064668 
     55 H           2.194489    2.880928   -0.647997 H         1 <1>         0.058370 
     56 H           2.653638    3.354119    1.015257 H         1 <1>         0.058370 
     57 H           2.558714    5.241213   -0.486880 H         1 <1>         0.209508 
     58 H           0.664127    5.509040    1.431801 H         1 <1>         0.210004 
     59 H          -1.534194    4.579280    3.858705 H         1 <1>         0.210005 
     60 H           1.630391   -4.930305    0.413920 H         1 <1>         0.217341 
     61 H           3.600764    2.744396   -8.961328 H         1 <1>         0.217313 
     62 H          -4.384639   -0.521010    3.050702 H         1 <1>         0.067462 
     63 H          -1.992109   -1.649650    5.900643 H         1 <1>         0.059107 
     64 H          -1.817954   -2.955867    4.690683 H         1 <1>         0.059107 
     65 H          -3.701655   -2.913236    2.726038 H         1 <1>         0.058733 
     66 H          -5.329980   -2.877497    3.489905 H         1 <1>         0.058733 
     67 H          -4.297021   -5.018622    3.721502 H         1 <1>         0.209522 
     68 H          -5.762699   -0.085083    4.989090 H         1 <1>         0.210125 
     69 H          -4.353926   -2.924635    6.286179 H         1 <1>         0.210475 
@<TRIPOS>BOND
     1    1    2 1    
     2    1    6 2    
     3    1   41 1    
     4    2    3 2    
     5    2   42 1    
     6    3    4 1    
     7    3    7 1    
     8    4    5 2    
     9    4   43 1    
    10    5    6 1    
    11    5   44 1    
    12    6   30 1    
    13    7    8 2    
    14    7   45 1    
    15    8    9 1    
    16    8   46 1    
    17    9   10 1    
    18    9   29 2    
    19   10   11 1    
    20   10   15 2    
    21   11   12 2    
    22   11   28 1    
    23   12   13 1    
    24   12   47 1    
    25   13   14 2    
    26   13   16 1    
    27   14   15 1    
    28   14   48 1    
    29   15   49 1    
    30   16   17 1    
    31   17   18 1    
    32   17   22 1    
    33   17   50 1    
    34   18   19 1    
    35   18   27 1    
    36   18   51 1    
    37   19   20 1    
    38   19   26 1    
    39   19   52 1    
    40   20   21 1    
    41   20   25 1    
    42   20   53 1    
    43   21   22 1    
    44   21   23 1    
    45   21   54 1    
    46   23   24 1    
    47   23   55 1    
    48   23   56 1    
    49   24   57 1    
    50   25   58 1    
    51   26   59 1    
    52   27   31 1    
    53   28   60 1    
    54   30   61 1    
    55   31   32 1    
    56   31   35 1    
    57   31   40 1    
    58   32   33 1    
    59   32   38 1    
    60   32   62 1    
    61   33   34 1    
    62   33   36 1    
    63   33   39 1    
    64   34   35 1    
    65   34   63 1    
    66   34   64 1    
    67   36   37 1    
    68   36   65 1    
    69   36   66 1    
    70   37   67 1    
    71   38   68 1    
    72   39   69 1    
@<TRIPOS>SUBSTRUCTURE
     1 ****        1 TEMP              0 ****  ****    0 ROOT 
@<TRIPOS>NORMAL
@<TRIPOS>FF_PBC
FORCE_FIELD_SETUP_FEATURE Force Field Setup information
v1.0  0 0.000000 0.000000 0.000000 0.000000 0.000000 0.000000 NONE 0 0 0 0 1 0 0 0 0 0 0 0 0
