@<TRIPOS>MOLECULE
MOL012988
  178   188     1     1     0
SMALL
GASTEIGER


@<TRIPOS>ATOM
      1 C          -0.357147    2.729186   -0.079231 C.3       1 <1>        -0.025470 
      2 C           0.218724    1.301027   -0.165307 C.3       1 <1>         0.067174 
      3 C           1.322566    1.171614   -1.259477 C.3       1 <1>        -0.005230 
      4 C           2.455580    2.264343   -1.043770 C.3       1 <1>        -0.027836 
      5 C           1.941077    3.750627   -0.850647 C.3       1 <1>        -0.025246 
      6 C           0.761829    3.772023    0.177783 C.3       1 <1>        -0.044721 
      7 C           3.476545    1.862500    0.068818 C.3       1 <1>        -0.048617 
      8 C           4.673275    2.847792    0.163754 C.3       1 <1>        -0.046476 
      9 C           4.233916    4.267631    0.620716 C.3       1 <1>        -0.020557 
     10 C           3.110760    4.724678   -0.386849 C.3       1 <1>        -0.029356 
     11 C           5.440411    5.296536    0.545538 C.3       1 <1>         0.008081 
     12 C           5.009903    6.797346    0.682048 C.3       1 <1>        -0.022254 
     13 C           3.755413    7.170684   -0.159470 C.3       1 <1>        -0.048816 
     14 C           2.611171    6.146219    0.033311 C.3       1 <1>        -0.048911 
     15 C           6.345089    5.322963   -0.716085 C.3       1 <1>         0.010330 
     16 C           7.246765    6.425773   -0.130157 C.3       1 <1>         0.176956 
     17 C           6.267806    7.574155    0.177062 C.3       1 <1>         0.045172 
     18 O           8.366201    6.817588   -0.944871 O.3       1 <1>        -0.340889 
     19 C           8.811883    8.167102   -0.683874 C.3       1 <1>         0.082911 
     20 C           8.497876    8.667962    0.752489 C.3       1 <1>         0.006275 
     21 C           6.959964    8.683515    1.041744 C.3       1 <1>         0.073921 
     22 C          11.069750    6.113816   -0.137495 C.3       1 <1>        -0.043969 
     23 C          11.265429    7.459420   -0.801209 C.2       1 <1>        -0.077208 
     24 C          10.278194    8.345310   -1.017897 C.2       1 <1>        -0.056719 
     25 C          12.688904    7.759227   -1.223606 C.3       1 <1>        -0.043969 
     26 C           3.817970    4.180331    2.134286 C.3       1 <1>        -0.058701 
     27 C           1.409732    4.315999   -2.232559 C.3       1 <1>        -0.059019 
     28 O          -0.880278    0.427570   -0.505472 O.3       1 <1>        -0.344893 
     29 C           1.884017   -0.289287   -1.151616 C.3       1 <1>        -0.057181 
     30 O           7.659173    5.860983    1.118289 O.3       1 <1>        -0.347589 
     31 C           6.566185    5.067294    1.601695 C.3       1 <1>         0.057503 
     32 C           0.688237    1.228071   -2.692431 C.3       1 <1>        -0.057181 
     33 C          -1.494485   -0.239683    0.613071 C.3       1 <1>         0.188196 
     34 O          -0.442900   -1.087404    1.104877 O.3       1 <1>        -0.346051 
     35 C          -0.886955   -2.011165    2.103300 C.3       1 <1>         0.079203 
     36 C          -1.880857   -3.022795    1.487003 C.3       1 <1>         0.107307 
     37 C          -3.137780   -2.269619    0.958558 C.3       1 <1>         0.120590 
     38 C          -2.677914   -1.077515    0.061675 C.3       1 <1>         0.140966 
     39 O          -3.779752   -0.275709   -0.427810 O.3       1 <1>        -0.337751 
     40 O          -2.167222   -3.912871    2.581834 O.3       1 <1>        -0.386848 
     41 C          -4.558253   -4.261964    0.569101 C.3       1 <1>         0.188803 
     42 O          -3.394606   -5.107673    0.598014 O.3       1 <1>        -0.340500 
     43 C          -3.665891   -6.506610    0.801199 C.3       1 <1>         0.113365 
     44 C          -4.577422   -7.029175   -0.331300 C.3       1 <1>         0.111916 
     45 C          -5.922891   -6.264084   -0.285642 C.3       1 <1>         0.114429 
     46 C          -5.659432   -4.733667   -0.428621 C.3       1 <1>         0.140628 
     47 C          -2.294101   -7.223177    0.786094 C.3       1 <1>         0.079556 
     48 O          -6.672105   -6.841837   -1.374749 O.3       1 <1>        -0.386391 
     49 O          -3.939634   -6.832678   -1.608606 O.3       1 <1>        -0.386488 
     50 O          -6.794461   -3.874289   -0.136323 O.3       1 <1>        -0.337771 
     51 C          -7.961859   -4.058956   -0.959613 C.3       1 <1>         0.188134 
     52 C          -4.495438    0.508550    0.552283 C.3       1 <1>         0.188431 
     53 O          -8.557339   -5.339983   -0.671413 O.3       1 <1>        -0.346058 
     54 C          -9.252604   -5.353869    0.590465 C.3       1 <1>         0.079193 
     55 C         -10.536129   -4.479296    0.508208 C.3       1 <1>         0.106933 
     56 C         -10.411246   -3.483477   -0.677275 C.3       1 <1>         0.113709 
     57 C          -8.976406   -2.906089   -0.689337 C.3       1 <1>         0.134103 
     58 O          -4.082778    1.887341    0.553544 O.3       1 <1>        -0.343067 
     59 C          -4.280731    2.542324   -0.715770 C.3       1 <1>         0.087307 
     60 C          -6.218445    0.968510   -1.228798 C.3       1 <1>         0.113972 
     61 C          -5.988224    0.348829    0.173256 C.3       1 <1>         0.134123 
     62 C          -5.756792    2.444673   -1.194445 C.3       1 <1>         0.109478 
     63 C          -3.902000    4.037817   -0.554084 C.3       1 <1>        -0.036060 
     64 O          -7.617141    0.970512   -1.570433 O.3       1 <1>        -0.386402 
     65 O          -8.770548   -2.282120    0.594642 O.3       1 <1>        -0.384104 
     66 O         -11.694636   -5.317145    0.322868 O.3       1 <1>        -0.386859 
     67 O         -11.397635   -2.437018   -0.602033 O.3       1 <1>        -0.386412 
     68 O          -2.471250   -8.653212    0.840353 O.3       1 <1>        -0.346050 
     69 O          -6.617978    3.188304   -0.309032 O.3       1 <1>        -0.386579 
     70 O          -6.352675   -1.049071    0.195089 O.3       1 <1>        -0.384104 
     71 O          -4.061234   -2.991971    0.098009 O.3       1 <1>        -0.340043 
     72 C          -1.229651   -9.359091    1.030952 C.3       1 <1>         0.188012 
     73 O          -0.223481   -8.816093    0.157835 O.3       1 <1>        -0.340532 
     74 C           1.061348   -9.456630    0.294887 C.3       1 <1>         0.113005 
     75 C           0.949147  -10.967857   -0.044969 C.3       1 <1>         0.111896 
     76 C          -0.129661  -11.627592    0.851906 C.3       1 <1>         0.114061 
     77 C          -1.463619  -10.854807    0.707961 C.3       1 <1>         0.134113 
     78 C           2.055284   -8.741766   -0.655732 C.3       1 <1>         0.073015 
     79 O          -0.285854  -12.999983    0.443522 O.3       1 <1>        -0.386401 
     80 O           0.605680  -11.120584   -1.434899 O.3       1 <1>        -0.386488 
     81 O          -2.434682  -11.432330    1.603071 O.3       1 <1>        -0.384104 
     82 O           2.307868   -7.409884   -0.165091 O.3       1 <1>        -0.392366 
     83 C           6.749329    8.585059    2.578478 C.3       1 <1>        -0.035536 
     84 O           6.408993    9.974795    0.707560 O.3       1 <1>        -0.388286 
     85 H          -0.930151    2.943102   -0.989606 H         1 <1>         0.029047 
     86 H          -1.074762    2.758913    0.757505 H         1 <1>         0.029047 
     87 H           0.674813    1.058622    0.809248 H         1 <1>         0.060224 
     88 H           3.081941    2.239865   -1.950807 H         1 <1>         0.031210 
     89 H           1.118305    3.554337    1.184201 H         1 <1>         0.027149 
     90 H           0.284248    4.763333    0.207666 H         1 <1>         0.027149 
     91 H           2.977573    1.726693    1.035838 H         1 <1>         0.026846 
     92 H           3.961536    0.905073   -0.180455 H         1 <1>         0.026846 
     93 H           5.418499    2.425546    0.856158 H         1 <1>         0.027088 
     94 H           5.142156    2.892957   -0.831442 H         1 <1>         0.027088 
     95 H           3.676495    4.831122   -1.324399 H         1 <1>         0.031156 
     96 H           4.768093    7.013610    1.729645 H         1 <1>         0.031229 
     97 H           3.417327    8.180654    0.128911 H         1 <1>         0.026833 
     98 H           3.975458    7.197523   -1.238979 H         1 <1>         0.026833 
     99 H           2.258887    6.155897    1.073469 H         1 <1>         0.026837 
    100 H           1.763510    6.514697   -0.562586 H         1 <1>         0.026837 
    101 H           5.865607    5.637801   -1.654404 H         1 <1>         0.032341 
    102 H           6.938655    4.412442   -0.895578 H         1 <1>         0.032341 
    103 H           6.063368    8.013121   -0.811488 H         1 <1>         0.038356 
    104 H           8.253137    8.798889   -1.393919 H         1 <1>         0.064228 
    105 H           9.021517    7.997786    1.451457 H         1 <1>         0.032111 
    106 H           8.904627    9.681623    0.901256 H         1 <1>         0.032111 
    107 H          11.930541    5.885425    0.509662 H         1 <1>         0.027428 
    108 H          10.174118    6.059882    0.493245 H         1 <1>         0.027428 
    109 H          11.001488    5.339033   -0.915909 H         1 <1>         0.027428 
    110 H          10.536902    9.300345   -1.478015 H         1 <1>         0.059695 
    111 H          12.787590    8.694811   -1.794999 H         1 <1>         0.027428 
    112 H          13.327533    7.835943   -0.330605 H         1 <1>         0.027428 
    113 H          13.061805    6.937609   -1.854145 H         1 <1>         0.027428 
    114 H           4.611462    3.697991    2.721370 H         1 <1>         0.023534 
    115 H           3.645161    5.160334    2.593471 H         1 <1>         0.023534 
    116 H           2.933154    3.582200    2.342825 H         1 <1>         0.023534 
    117 H           1.803612    3.756245   -3.091683 H         1 <1>         0.023525 
    118 H           1.705464    5.350207   -2.447632 H         1 <1>         0.023525 
    119 H           0.315864    4.330636   -2.306438 H         1 <1>         0.023525 
    120 H           2.208670   -0.545332   -0.131997 H         1 <1>         0.023587 
    121 H           1.117928   -1.037742   -1.407639 H         1 <1>         0.023587 
    122 H           2.730693   -0.426659   -1.842150 H         1 <1>         0.023587 
    123 H           6.303666    5.362342    2.628118 H         1 <1>         0.056658 
    124 H           6.929511    4.029655    1.621423 H         1 <1>         0.056658 
    125 H           0.098273    2.123619   -2.894525 H         1 <1>         0.023587 
    126 H           1.475524    1.157752   -3.457567 H         1 <1>         0.023587 
    127 H          -0.001742    0.387542   -2.861122 H         1 <1>         0.023587 
    128 H          -1.846494    0.464164    1.384125 H         1 <1>         0.093749 
    129 H           0.001034   -2.556458    2.460141 H         1 <1>         0.058735 
    130 H          -1.334882   -1.490514    2.965631 H         1 <1>         0.058735 
    131 H          -1.376791   -3.541337    0.652085 H         1 <1>         0.064310 
    132 H          -3.680328   -1.939815    1.853818 H         1 <1>         0.065136 
    133 H          -2.269579   -1.558546   -0.842228 H         1 <1>         0.067487 
    134 H          -2.696340   -4.650517    2.309846 H         1 <1>         0.209990 
    135 H          -5.015325   -4.171194    1.568922 H         1 <1>         0.093763 
    136 H          -4.143972   -6.687672    1.779164 H         1 <1>         0.064677 
    137 H          -4.766924   -8.106471   -0.174599 H         1 <1>         0.064673 
    138 H          -6.421509   -6.458002    0.679699 H         1 <1>         0.064768 
    139 H          -5.282318   -4.550113   -1.447479 H         1 <1>         0.067477 
    140 H          -1.771852   -6.942070   -0.142631 H         1 <1>         0.058744 
    141 H          -1.699042   -6.863607    1.641482 H         1 <1>         0.058744 
    142 H          -7.578323   -6.549481   -1.399139 H         1 <1>         0.210005 
    143 H          -4.492793   -7.131271   -2.325237 H         1 <1>         0.210004 
    144 H          -7.680670   -4.054355   -2.026642 H         1 <1>         0.093743 
    145 H          -4.400793    0.161276    1.590142 H         1 <1>         0.093753 
    146 H          -9.539359   -6.391919    0.817769 H         1 <1>         0.058735 
    147 H          -8.577167   -5.010031    1.391877 H         1 <1>         0.058735 
    148 H         -10.645184   -3.927097    1.458674 H         1 <1>         0.064300 
    149 H         -10.588411   -4.031035   -1.617748 H         1 <1>         0.064747 
    150 H          -8.906875   -2.144109   -1.482457 H         1 <1>         0.067095 
    151 H          -3.610593    2.080331   -1.461830 H         1 <1>         0.062075 
    152 H          -5.641019    0.413983   -1.989330 H         1 <1>         0.064757 
    153 H          -6.618915    0.884543    0.901761 H         1 <1>         0.067095 
    154 H          -5.835237    2.868965   -2.211363 H         1 <1>         0.064584 
    155 H          -4.555473    4.521577    0.187502 H         1 <1>         0.025536 
    156 H          -4.003403    4.566735   -1.514399 H         1 <1>         0.025536 
    157 H          -2.867635    4.144764   -0.204446 H         1 <1>         0.025536 
    158 H          -7.985983    0.094674   -1.563192 H         1 <1>         0.210005 
    159 H          -7.886445   -1.931215    0.681245 H         1 <1>         0.210110 
    160 H         -12.501029   -4.813407    0.257400 H         1 <1>         0.209989 
    161 H         -11.271604   -1.882911    0.162310 H         1 <1>         0.210005 
    162 H          -7.532542    3.125275   -0.571370 H         1 <1>         0.210002 
    163 H          -5.753382   -1.575118   -0.335036 H         1 <1>         0.210110 
    164 H          -0.932788   -9.246821    2.086966 H         1 <1>         0.093741 
    165 H           1.440355   -9.332073    1.323374 H         1 <1>         0.064668 
    166 H           1.918887  -11.461322    0.143693 H         1 <1>         0.064673 
    167 H           0.193509  -11.589541    1.907150 H         1 <1>         0.064758 
    168 H          -1.806582  -10.934215   -0.338020 H         1 <1>         0.067095 
    169 H           3.003009   -9.304236   -0.697844 H         1 <1>         0.058370 
    170 H           1.616097   -8.705957   -1.667375 H         1 <1>         0.058370 
    171 H          -0.965879  -13.442894    0.943965 H         1 <1>         0.210005 
    172 H           0.489794  -12.036525   -1.672275 H         1 <1>         0.210004 
    173 H          -3.270065  -10.976216    1.552361 H         1 <1>         0.210110 
    174 H           2.893323   -6.908226   -0.724807 H         1 <1>         0.209508 
    175 H           7.051294    7.605707    2.970802 H         1 <1>         0.025733 
    176 H           5.702607    8.782388    2.851304 H         1 <1>         0.025733 
    177 H           7.360920    9.352640    3.077029 H         1 <1>         0.025733 
    178 H           6.544548   10.244348   -0.194225 H         1 <1>         0.210163 
@<TRIPOS>BOND
     1    2    1 1    
     2    1    6 1    
     3    1   85 1    
     4    1   86 1    
     5    2    3 1    
     6   28    2 1    
     7    2   87 1    
     8    3    4 1    
     9    3   29 1    
    10    3   32 1    
    11    4    5 1    
    12    4    7 1    
    13    4   88 1    
    14    6    5 1    
    15    5   10 1    
    16    5   27 1    
    17    6   89 1    
    18    6   90 1    
    19    7    8 1    
    20    7   91 1    
    21    7   92 1    
    22    8    9 1    
    23    8   93 1    
    24    8   94 1    
    25   10    9 1    
    26    9   11 1    
    27    9   26 1    
    28   10   14 1    
    29   10   95 1    
    30   11   12 1    
    31   11   15 1    
    32   11   31 1    
    33   13   12 1    
    34   12   17 1    
    35   12   96 1    
    36   14   13 1    
    37   13   97 1    
    38   13   98 1    
    39   14   99 1    
    40   14  100 1    
    41   15   16 1    
    42   15  101 1    
    43   15  102 1    
    44   16   17 1    
    45   16   18 1    
    46   30   16 1    
    47   17   21 1    
    48   17  103 1    
    49   18   19 1    
    50   19   20 1    
    51   19   24 1    
    52   19  104 1    
    53   21   20 1    
    54   20  105 1    
    55   20  106 1    
    56   21   83 1    
    57   21   84 1    
    58   23   22 1    
    59   22  107 1    
    60   22  108 1    
    61   22  109 1    
    62   24   23 2    
    63   23   25 1    
    64   24  110 1    
    65   25  111 1    
    66   25  112 1    
    67   25  113 1    
    68   26  114 1    
    69   26  115 1    
    70   26  116 1    
    71   27  117 1    
    72   27  118 1    
    73   27  119 1    
    74   33   28 1    
    75   29  120 1    
    76   29  121 1    
    77   29  122 1    
    78   31   30 1    
    79   31  123 1    
    80   31  124 1    
    81   32  125 1    
    82   32  126 1    
    83   32  127 1    
    84   33   34 1    
    85   38   33 1    
    86   33  128 1    
    87   35   34 1    
    88   36   35 1    
    89   35  129 1    
    90   35  130 1    
    91   37   36 1    
    92   36   40 1    
    93   36  131 1    
    94   37   38 1    
    95   71   37 1    
    96   37  132 1    
    97   38   39 1    
    98   38  133 1    
    99   39   52 1    
   100   40  134 1    
   101   41   42 1    
   102   41   46 1    
   103   41   71 1    
   104   41  135 1    
   105   42   43 1    
   106   43   44 1    
   107   43   47 1    
   108   43  136 1    
   109   44   45 1    
   110   44   49 1    
   111   44  137 1    
   112   45   46 1    
   113   45   48 1    
   114   45  138 1    
   115   46   50 1    
   116   46  139 1    
   117   47   68 1    
   118   47  140 1    
   119   47  141 1    
   120   48  142 1    
   121   49  143 1    
   122   50   51 1    
   123   51   53 1    
   124   51   57 1    
   125   51  144 1    
   126   52   58 1    
   127   52   61 1    
   128   52  145 1    
   129   53   54 1    
   130   54   55 1    
   131   54  146 1    
   132   54  147 1    
   133   55   56 1    
   134   55   66 1    
   135   55  148 1    
   136   56   57 1    
   137   56   67 1    
   138   56  149 1    
   139   57   65 1    
   140   57  150 1    
   141   58   59 1    
   142   59   62 1    
   143   59   63 1    
   144   59  151 1    
   145   61   60 1    
   146   60   62 1    
   147   60   64 1    
   148   60  152 1    
   149   61   70 1    
   150   61  153 1    
   151   62   69 1    
   152   62  154 1    
   153   63  155 1    
   154   63  156 1    
   155   63  157 1    
   156   64  158 1    
   157   65  159 1    
   158   66  160 1    
   159   67  161 1    
   160   68   72 1    
   161   69  162 1    
   162   70  163 1    
   163   72   73 1    
   164   72   77 1    
   165   72  164 1    
   166   73   74 1    
   167   74   75 1    
   168   74   78 1    
   169   74  165 1    
   170   75   76 1    
   171   75   80 1    
   172   75  166 1    
   173   76   77 1    
   174   76   79 1    
   175   76  167 1    
   176   77   81 1    
   177   77  168 1    
   178   78   82 1    
   179   78  169 1    
   180   78  170 1    
   181   79  171 1    
   182   80  172 1    
   183   81  173 1    
   184   82  174 1    
   185   83  175 1    
   186   83  176 1    
   187   83  177 1    
   188   84  178 1    
@<TRIPOS>SUBSTRUCTURE
     1 ****       41 TEMP              0 ****  ****    0 ROOT 
@<TRIPOS>NORMAL
@<TRIPOS>FF_PBC
FORCE_FIELD_SETUP_FEATURE Force Field Setup information
v1.0  0 0.000000 0.000000 0.000000 0.000000 0.000000 0.000000 NONE 0 0 0 0 1 0 0 0 0 0 0 0 0
