@<TRIPOS>MOLECULE
MOL002936
   37    39     1     1     0
SMALL
GASTEIGER


@<TRIPOS>ATOM
      1 C           2.117201   -0.493162    0.017729 C.2       1 <1>         0.093971 
      2 C           2.648193    0.738580    0.049029 C.2       1 <1>         0.016922 
      3 C           1.791996    1.929461    0.061443 C.2       1 <1>         0.193680 
      4 O           2.286225    3.044450    0.089894 O.2       1 <1>        -0.287015 
      5 C           0.300878    1.713717    0.037817 C.ar      1 <1>         0.087032 
      6 C          -0.670532    2.829864    0.047277 C.ar      1 <1>         0.118646 
      7 C          -2.060015    2.565586    0.024042 C.ar      1 <1>         0.138840 
      8 C          -2.552444    1.156840   -0.010161 C.ar      1 <1>         0.140609 
      9 C          -1.586191    0.088568   -0.018765 C.ar      1 <1>         0.136908 
     10 C          -0.134807    0.398181    0.006148 C.ar      1 <1>         0.128675 
     11 O           0.782779   -0.660087   -0.002910 O.3       1 <1>        -0.305130 
     12 C           2.950037   -1.764016    0.003377 C.ar      1 <1>         0.005596 
     13 C           2.229281   -3.064335   -0.031195 C.ar      1 <1>        -0.052112 
     14 C           2.924853   -4.283525   -0.046286 C.ar      1 <1>        -0.061122 
     15 C           4.404749   -4.296326   -0.027825 C.ar      1 <1>        -0.061721 
     16 C           5.105667   -3.087955    0.004699 C.ar      1 <1>        -0.061122 
     17 C           4.376356   -1.796976    0.020745 C.ar      1 <1>        -0.052112 
     18 O          -3.935913    0.909624   -0.032939 O.3       1 <1>        -0.342833 
     19 C          -4.519604   -0.402102   -0.066215 C.3       1 <1>         0.043244 
     20 O          -2.922856    3.675039    0.034759 O.3       1 <1>        -0.342879 
     21 C          -4.353846    3.557773    0.013799 C.3       1 <1>         0.043244 
     22 O          -1.988649   -1.249461   -0.050415 O.3       1 <1>        -0.355295 
     23 O          -0.208034    4.147407    0.079298 O.3       1 <1>        -0.356587 
     24 H           3.713031    0.949337    0.067085 H         1 <1>         0.068219 
     25 H           1.145172   -3.085530   -0.045306 H         1 <1>         0.062424 
     26 H           2.379493   -5.221787   -0.071562 H         1 <1>         0.061777 
     27 H           4.939567   -5.240744   -0.039554 H         1 <1>         0.061759 
     28 H           6.191229   -3.093252    0.018328 H         1 <1>         0.061777 
     29 H           4.970724   -0.894335    0.045898 H         1 <1>         0.062424 
     30 H          -5.612110   -0.276452   -0.077811 H         1 <1>         0.052872 
     31 H          -4.228206   -0.944890   -0.978323 H         1 <1>         0.052872 
     32 H          -4.251491   -0.980426    0.831076 H         1 <1>         0.052872 
     33 H          -4.769443    4.575890    0.028475 H         1 <1>         0.052872 
     34 H          -4.698733    3.060336   -0.905486 H         1 <1>         0.052872 
     35 H          -4.722305    3.024642    0.903453 H         1 <1>         0.052872 
     36 H          -1.245876   -1.845045   -0.052546 H         1 <1>         0.217503 
     37 H          -0.923602    4.776563    0.082441 H         1 <1>         0.217446 
@<TRIPOS>BOND
     1    1    2 2    
     2    1   11 1    
     3    1   12 1    
     4    2    3 1    
     5    2   24 1    
     6    3    4 2    
     7    3    5 1    
     8    5    6 1    
     9    5   10 2    
    10    6    7 2    
    11    6   23 1    
    12    7    8 1    
    13    7   20 1    
    14    8    9 2    
    15    8   18 1    
    16    9   10 1    
    17    9   22 1    
    18   10   11 1    
    19   12   13 1    
    20   12   17 2    
    21   13   14 2    
    22   13   25 1    
    23   14   15 1    
    24   14   26 1    
    25   15   16 2    
    26   15   27 1    
    27   16   17 1    
    28   16   28 1    
    29   17   29 1    
    30   18   19 1    
    31   19   30 1    
    32   19   31 1    
    33   19   32 1    
    34   20   21 1    
    35   21   33 1    
    36   21   34 1    
    37   21   35 1    
    38   22   36 1    
    39   23   37 1    
@<TRIPOS>SUBSTRUCTURE
     1 ****        1 TEMP              0 ****  ****    0 ROOT 
@<TRIPOS>NORMAL
@<TRIPOS>FF_PBC
FORCE_FIELD_SETUP_FEATURE Force Field Setup information
v1.0  0 0.000000 0.000000 0.000000 0.000000 0.000000 0.000000 NONE 0 0 0 0 1 0 0 0 0 0 0 0 0
