@<TRIPOS>MOLECULE
MOL004031
   39    39     1     1     0
SMALL
GASTEIGER


@<TRIPOS>ATOM
      1 C           0.653102    1.459416    0.204519 C.3       1 <1>         0.007466 
      2 C           1.918938    0.616901    0.552383 C.3       1 <1>        -0.036448 
      3 C          -0.573407    0.563988    0.126390 C.2       1 <1>        -0.057091 
      4 C           2.051190   -0.702455   -0.245263 C.3       1 <1>        -0.026672 
      5 C          -1.943217    1.232961    0.102059 C.3       1 <1>        -0.024449 
      6 C           0.802284   -1.535000   -0.075401 C.2       1 <1>        -0.048603 
      7 C          -0.466185   -0.772546    0.041574 C.2       1 <1>        -0.058322 
      8 C           0.561054    2.550757    1.324278 C.3       1 <1>        -0.052335 
      9 C           0.773403    2.017196   -1.199737 C.2       1 <1>        -0.081195 
     10 C          -2.772724    0.831058   -1.152387 C.3       1 <1>        -0.058917 
     11 C          -2.716280    0.960573    1.418927 C.3       1 <1>        -0.058917 
     12 C           0.826545   -2.884805   -0.049122 C.2       1 <1>        -0.072534 
     13 C           0.819618    3.314331   -1.534906 C.2       1 <1>        -0.101813 
     14 C          -0.424476   -3.694649    0.229490 C.3       1 <1>        -0.043501 
     15 C           2.067815   -3.724123   -0.294536 C.3       1 <1>        -0.043501 
     16 H           2.822176    1.229745    0.393697 H         1 <1>         0.027969 
     17 H           1.885639    0.333740    1.619585 H         1 <1>         0.027969 
     18 H           2.224819   -0.511731   -1.314369 H         1 <1>         0.031352 
     19 H           2.943616   -1.197861    0.169107 H         1 <1>         0.031352 
     20 H          -1.836977    2.321373   -0.012193 H         1 <1>         0.034062 
     21 H          -1.400964   -1.319951    0.025911 H         1 <1>         0.062022 
     22 H          -0.235646    3.290561    1.182689 H         1 <1>         0.024110 
     23 H           1.509794    3.106692    1.375737 H         1 <1>         0.024110 
     24 H           0.392166    2.074544    2.302079 H         1 <1>         0.024110 
     25 H           0.815304    1.300327   -2.021018 H         1 <1>         0.057491 
     26 H          -3.686921    1.442426   -1.223070 H         1 <1>         0.023536 
     27 H          -2.174226    1.003666   -2.061653 H         1 <1>         0.023536 
     28 H          -3.082732   -0.223662   -1.136722 H         1 <1>         0.023536 
     29 H          -3.667224    1.515652    1.431174 H         1 <1>         0.023536 
     30 H          -2.112176    1.286521    2.279503 H         1 <1>         0.023536 
     31 H          -2.938938   -0.111027    1.535462 H         1 <1>         0.023536 
     32 H           0.898137    3.600167   -2.583518 H         1 <1>         0.053201 
     33 H           0.783333    4.128240   -0.815498 H         1 <1>         0.053201 
     34 H          -0.199312   -4.754640    0.422494 H         1 <1>         0.027445 
     35 H          -0.940462   -3.317088    1.125504 H         1 <1>         0.027445 
     36 H          -1.099126   -3.644595   -0.638466 H         1 <1>         0.027445 
     37 H           2.880533   -3.207521   -0.821817 H         1 <1>         0.027445 
     38 H           1.803140   -4.585309   -0.927813 H         1 <1>         0.027445 
     39 H           2.447172   -4.103236    0.666932 H         1 <1>         0.027445 
@<TRIPOS>BOND
     1    1    2 1    
     2    1    3 1    
     3    1    8 1    
     4    1    9 1    
     5    2    4 1    
     6    2   16 1    
     7    2   17 1    
     8    3    5 1    
     9    3    7 2    
    10    4    6 1    
    11    4   18 1    
    12    4   19 1    
    13    5   10 1    
    14    5   11 1    
    15    5   20 1    
    16    6    7 1    
    17    6   12 2    
    18    7   21 1    
    19    8   22 1    
    20    8   23 1    
    21    8   24 1    
    22    9   13 2    
    23    9   25 1    
    24   10   26 1    
    25   10   27 1    
    26   10   28 1    
    27   11   29 1    
    28   11   30 1    
    29   11   31 1    
    30   12   14 1    
    31   12   15 1    
    32   13   32 1    
    33   13   33 1    
    34   14   34 1    
    35   14   35 1    
    36   14   36 1    
    37   15   37 1    
    38   15   38 1    
    39   15   39 1    
@<TRIPOS>SUBSTRUCTURE
     1 ****        1 TEMP              0 ****  ****    0 ROOT 
@<TRIPOS>NORMAL
@<TRIPOS>FF_PBC
FORCE_FIELD_SETUP_FEATURE Force Field Setup information
v1.0  0 0.000000 0.000000 0.000000 0.000000 0.000000 0.000000 NONE 0 0 0 0 1 0 0 0 0 0 0 0 0
