@<TRIPOS>MOLECULE
MOL000050
   10     9     1     1     0
SMALL
GASTEIGER


@<TRIPOS>ATOM
      1 C           0.918949    0.295180   -0.034682 C.2       1 <1>         0.273362 
      2 N          -1.528475    0.306419    0.336081 N.3       1 <1>        -0.321860 
      3 C          -0.356014   -0.510569   -0.053506 C.3       1 <1>         0.079884 
      4 O           0.922863    1.494519   -0.266452 O.2       1 <1>        -0.263758 
      5 O           2.036207   -0.386822    0.231474 O.3       1 <1>        -0.330312 
      6 H          -2.439115   -0.276984    0.287321 H         1 <1>         0.118669 
      7 H          -1.617891    1.171499   -0.308884 H         1 <1>         0.118669 
      8 H          -0.482800   -0.919293   -1.069275 H         1 <1>         0.052548 
      9 H          -0.255955   -1.350614    0.652596 H         1 <1>         0.052548 
     10 H           2.802233    0.176667    0.225027 H         1 <1>         0.220250 
@<TRIPOS>BOND
     1    1    3 1    
     2    1    4 2    
     3    1    5 1    
     4    3    2 1    
     5    2    6 1    
     6    2    7 1    
     7    3    8 1    
     8    3    9 1    
     9    5   10 1    
@<TRIPOS>SUBSTRUCTURE
     1 ****        1 TEMP              0 ****  ****    0 ROOT 
@<TRIPOS>NORMAL
@<TRIPOS>FF_PBC
FORCE_FIELD_SETUP_FEATURE Force Field Setup information
v1.0  0 0.000000 0.000000 0.000000 0.000000 0.000000 0.000000 NONE 0 0 0 0 1 0 0 0 0 0 0 0 0
