@<TRIPOS>MOLECULE
MOL013336
   73    77     1     1     0
SMALL
GASTEIGER


@<TRIPOS>ATOM
      1 C           1.136537    1.809792   -1.535456 C.ar      1 <1>         0.092370 
      2 C           1.189916    3.039506   -1.001047 C.ar      1 <1>         0.077223 
      3 O           2.290863    1.038970   -1.726579 O.3       1 <1>        -0.335586 
      4 C          -0.173144    1.267133   -1.969923 C.ar      1 <1>        -0.000657 
      5 C           2.553278    3.610987   -0.695109 C.2       1 <1>         0.170906 
      6 C          -0.060107    3.801262   -0.754746 C.ar      1 <1>         0.087976 
      7 C           3.602345    1.500888   -1.334005 C.3       1 <1>         0.097162 
      8 C          -1.309563    1.963368   -1.807540 C.ar      1 <1>         0.084385 
      9 C           3.715876    3.038153   -1.450279 C.3       1 <1>         0.041564 
     10 O           2.721206    4.508377    0.114022 O.2       1 <1>        -0.291783 
     11 C          -1.252732    3.286197   -1.131341 C.ar      1 <1>        -0.000944 
     12 O           0.008466    5.047780   -0.131161 O.3       1 <1>        -0.358966 
     13 C           4.124684    1.058603    0.049491 C.ar      1 <1>        -0.017820 
     14 O          -2.506261    1.420805   -2.299953 O.3       1 <1>        -0.312385 
     15 C           5.460354    0.413999    0.150260 C.ar      1 <1>        -0.053661 
     16 C           3.391379    1.261382    1.232425 C.ar      1 <1>        -0.053661 
     17 C          -3.829258    1.754320   -1.841106 C.3       1 <1>         0.193645 
     18 C           6.002485    0.066374    1.393756 C.ar      1 <1>        -0.031601 
     19 C           3.969580    0.902948    2.552933 C.ar      1 <1>        -0.031601 
     20 O          -4.029978    1.506767   -0.437524 O.3       1 <1>        -0.340158 
     21 C          -4.877453    0.978970   -2.686268 C.3       1 <1>         0.134509 
     22 C           5.249482    0.330225    2.638568 C.ar      1 <1>         0.072600 
     23 C          -3.968786    0.112004   -0.058544 C.3       1 <1>         0.113377 
     24 C          -4.797045   -0.543987   -2.392694 C.3       1 <1>         0.114074 
     25 O          -6.191170    1.514512   -2.412669 O.3       1 <1>        -0.384091 
     26 O           5.827175    0.001273    3.868117 O.3       1 <1>        -0.359832 
     27 C          -2.505979   -0.394192   -0.034698 C.3       1 <1>         0.079556 
     28 C          -4.950340   -0.785090   -0.865257 C.3       1 <1>         0.111906 
     29 O          -3.568474   -1.074893   -2.927899 O.3       1 <1>        -0.386401 
     30 O          -2.376678   -1.670098    0.627909 O.3       1 <1>        -0.346051 
     31 O          -6.298793   -0.485850   -0.439356 O.3       1 <1>        -0.386488 
     32 C          -0.997543   -2.057476    0.835508 C.3       1 <1>         0.187899 
     33 C          -0.489657   -1.603445    2.227900 C.3       1 <1>         0.134110 
     34 O          -1.000146   -3.496298    0.799048 O.3       1 <1>        -0.343081 
     35 C           0.981355   -2.075408    2.380627 C.3       1 <1>         0.113972 
     36 O          -0.597479   -0.175236    2.401158 O.3       1 <1>        -0.384104 
     37 C           0.304758   -4.095417    0.954801 C.3       1 <1>         0.087307 
     38 C           1.028381   -3.620240    2.250229 C.3       1 <1>         0.109478 
     39 O           1.802006   -1.416160    1.394343 O.3       1 <1>        -0.386402 
     40 C           1.177905   -3.973899   -0.325425 C.3       1 <1>        -0.036060 
     41 O           0.403377   -4.164477    3.430855 O.3       1 <1>        -0.386579 
     42 H          -0.200764    0.294231   -2.444125 H         1 <1>         0.066941 
     43 H           4.267206    1.041228   -2.082053 H         1 <1>         0.065571 
     44 H           4.676123    3.399760   -1.048397 H         1 <1>         0.037400 
     45 H           3.633260    3.352831   -2.503311 H         1 <1>         0.037400 
     46 H          -2.160964    3.840717   -0.936582 H         1 <1>         0.066933 
     47 H          -0.543363    5.702890   -0.542920 H         1 <1>         0.217342 
     48 H           6.035852    0.203345   -0.745428 H         1 <1>         0.062190 
     49 H           2.397987    1.693202    1.193910 H         1 <1>         0.062190 
     50 H          -4.013055    2.825903   -2.015805 H         1 <1>         0.094160 
     51 H           6.981427   -0.400590    1.457501 H         1 <1>         0.064329 
     52 H           3.396281    1.098181    3.452455 H         1 <1>         0.064329 
     53 H          -4.641999    1.145688   -3.752092 H         1 <1>         0.067108 
     54 H          -4.305370    0.074927    0.990517 H         1 <1>         0.064677 
     55 H          -5.626450   -1.043517   -2.923368 H         1 <1>         0.064758 
     56 H          -6.888110    1.094259   -2.907682 H         1 <1>         0.210111 
     57 H           5.400014    0.401807    4.617080 H         1 <1>         0.217313 
     58 H          -2.137851   -0.539069   -1.054406 H         1 <1>         0.058744 
     59 H          -1.910054    0.392633    0.452679 H         1 <1>         0.058744 
     60 H          -4.744091   -1.843496   -0.626948 H         1 <1>         0.064673 
     61 H          -3.478593   -2.017980   -2.823215 H         1 <1>         0.210005 
     62 H          -6.971678   -1.011280   -0.861031 H         1 <1>         0.210004 
     63 H          -0.344966   -1.659292    0.041769 H         1 <1>         0.093739 
     64 H          -1.137523   -2.099802    2.971739 H         1 <1>         0.067095 
     65 H           1.334092   -1.798152    3.389389 H         1 <1>         0.064757 
     66 H          -0.351930    0.115125    3.274236 H         1 <1>         0.210110 
     67 H           0.099015   -5.173353    1.061029 H         1 <1>         0.062075 
     68 H           2.081477   -3.949180    2.234016 H         1 <1>         0.064584 
     69 H           2.727813   -1.627793    1.465373 H         1 <1>         0.210005 
     70 H           2.063485   -4.623843   -0.238244 H         1 <1>         0.025536 
     71 H           0.589785   -4.306520   -1.194230 H         1 <1>         0.025536 
     72 H           1.525853   -2.951176   -0.517687 H         1 <1>         0.025536 
     73 H           0.428231   -5.115759    3.475015 H         1 <1>         0.210002 
@<TRIPOS>BOND
     1    1    2 2    
     2    1    3 1    
     3    1    4 1    
     4    2    5 1    
     5    2    6 1    
     6    3    7 1    
     7    4    8 2    
     8    4   42 1    
     9    5    9 1    
    10    5   10 2    
    11    6   11 2    
    12    6   12 1    
    13    7    9 1    
    14    7   13 1    
    15    7   43 1    
    16    8   11 1    
    17    8   14 1    
    18    9   44 1    
    19    9   45 1    
    20   11   46 1    
    21   12   47 1    
    22   13   15 1    
    23   13   16 2    
    24   14   17 1    
    25   15   18 2    
    26   15   48 1    
    27   16   19 1    
    28   16   49 1    
    29   17   20 1    
    30   17   21 1    
    31   17   50 1    
    32   18   22 1    
    33   18   51 1    
    34   19   22 2    
    35   19   52 1    
    36   20   23 1    
    37   21   24 1    
    38   21   25 1    
    39   21   53 1    
    40   22   26 1    
    41   23   27 1    
    42   23   28 1    
    43   23   54 1    
    44   24   28 1    
    45   24   29 1    
    46   24   55 1    
    47   25   56 1    
    48   26   57 1    
    49   27   30 1    
    50   27   58 1    
    51   27   59 1    
    52   28   31 1    
    53   28   60 1    
    54   29   61 1    
    55   30   32 1    
    56   31   62 1    
    57   32   33 1    
    58   32   34 1    
    59   32   63 1    
    60   33   35 1    
    61   33   36 1    
    62   33   64 1    
    63   34   37 1    
    64   35   38 1    
    65   35   39 1    
    66   35   65 1    
    67   36   66 1    
    68   37   38 1    
    69   37   40 1    
    70   37   67 1    
    71   38   41 1    
    72   38   68 1    
    73   39   69 1    
    74   40   70 1    
    75   40   71 1    
    76   40   72 1    
    77   41   73 1    
@<TRIPOS>SUBSTRUCTURE
     1 ****        1 TEMP              0 ****  ****    0 ROOT 
@<TRIPOS>NORMAL
@<TRIPOS>FF_PBC
FORCE_FIELD_SETUP_FEATURE Force Field Setup information
v1.0  0 0.000000 0.000000 0.000000 0.000000 0.000000 0.000000 NONE 0 0 0 0 1 0 0 0 0 0 0 0 0
