@<TRIPOS>MOLECULE
MOL000708
   14    14     1     1     0
SMALL
GASTEIGER


@<TRIPOS>ATOM
      1 C           0.545552    0.707664   -0.187741 C.ar      1 <1>         0.014180 
      2 C           1.107177   -0.619481    0.166750 C.ar      1 <1>        -0.051539 
      3 C          -0.853481    0.878420   -0.235354 C.ar      1 <1>        -0.051539 
      4 C           1.474567    1.861936   -0.493918 C.2       1 <1>         0.150198 
      5 C           0.251509   -1.696405    0.452416 C.ar      1 <1>        -0.061106 
      6 C          -1.755053   -0.258927    0.066343 C.ar      1 <1>        -0.061106 
      7 O           1.032306    2.960882   -0.787429 O.2       1 <1>        -0.295700 
      8 C          -1.218012   -1.511305    0.400866 C.ar      1 <1>        -0.061721 
      9 H           2.182348   -0.761086    0.206114 H         1 <1>         0.062441 
     10 H          -1.278549    1.842979   -0.493016 H         1 <1>         0.062441 
     11 H           2.554620    1.727193   -0.456379 H         1 <1>         0.108138 
     12 H           0.663830   -2.666514    0.711541 H         1 <1>         0.061777 
     13 H          -2.830857   -0.119764    0.027635 H         1 <1>         0.061777 
     14 H          -1.876055   -2.345593    0.622174 H         1 <1>         0.061759 
@<TRIPOS>BOND
     1    1    2 1    
     2    1    3 2    
     3    1    4 1    
     4    2    5 2    
     5    2    9 1    
     6    3    6 1    
     7    3   10 1    
     8    4    7 2    
     9    4   11 1    
    10    5    8 1    
    11    5   12 1    
    12    6    8 2    
    13    6   13 1    
    14    8   14 1    
@<TRIPOS>SUBSTRUCTURE
     1 ****        1 TEMP              0 ****  ****    0 ROOT 
@<TRIPOS>NORMAL
@<TRIPOS>FF_PBC
FORCE_FIELD_SETUP_FEATURE Force Field Setup information
v1.0  0 0.000000 0.000000 0.000000 0.000000 0.000000 0.000000 NONE 0 0 0 0 1 0 0 0 0 0 0 0 0
