@<TRIPOS>MOLECULE
MOL006954
   19    18     1     1     0
SMALL
GASTEIGER


@<TRIPOS>ATOM
      1 O          -0.656013    1.619495    0.000070 O.3       1 <1>        -0.352819 
      2 C          -1.853450    2.222807   -0.000069 C.2       1 <1>         0.032846 
      3 C          -1.912226    3.558419    0.000039 C.2       1 <1>        -0.075905 
      4 C          -0.725477    0.179360   -0.000074 C.3       1 <1>         0.053431 
      5 C           0.723278   -0.369871    0.000093 C.3       1 <1>        -0.029242 
      6 C           0.749550   -1.922720   -0.000110 C.3       1 <1>        -0.053817 
      7 C           2.204421   -2.459893    0.000111 C.3       1 <1>        -0.065205 
      8 H          -2.796169    1.669247   -0.000261 H         1 <1>         0.087873 
      9 H          -2.866035    4.086182   -0.000069 H         1 <1>         0.055418 
     10 H          -0.992465    4.142745    0.000230 H         1 <1>         0.055418 
     11 H          -1.252917   -0.181548   -0.899299 H         1 <1>         0.056460 
     12 H          -1.253190   -0.181717    0.898923 H         1 <1>         0.056460 
     13 H           1.245585    0.011211    0.893015 H         1 <1>         0.028738 
     14 H           1.245879    0.011442   -0.892558 H         1 <1>         0.028738 
     15 H           0.225808   -2.300992   -0.893904 H         1 <1>         0.026335 
     16 H           0.225448   -2.301236    0.893368 H         1 <1>         0.026335 
     17 H           2.202399   -3.561449   -0.000056 H         1 <1>         0.022978 
     18 H           2.742550   -2.110926    0.895292 H         1 <1>         0.022978 
     19 H           2.742923   -2.110656   -0.894741 H         1 <1>         0.022978 
@<TRIPOS>BOND
     1    1    2 1    
     2    1    4 1    
     3    2    3 2    
     4    2    8 1    
     5    3    9 1    
     6    3   10 1    
     7    4    5 1    
     8    4   11 1    
     9    4   12 1    
    10    5    6 1    
    11    5   13 1    
    12    5   14 1    
    13    6    7 1    
    14    6   15 1    
    15    6   16 1    
    16    7   17 1    
    17    7   18 1    
    18    7   19 1    
@<TRIPOS>SUBSTRUCTURE
     1 ****        1 TEMP              0 ****  ****    0 ROOT 
@<TRIPOS>NORMAL
@<TRIPOS>FF_PBC
FORCE_FIELD_SETUP_FEATURE Force Field Setup information
v1.0  0 0.000000 0.000000 0.000000 0.000000 0.000000 0.000000 NONE 0 0 0 0 1 0 0 0 0 0 0 0 0
