@<TRIPOS>MOLECULE
MOL013187
   46    50     1     1     0
SMALL
GASTEIGER


@<TRIPOS>ATOM
      1 C          -0.833929   -2.224301   -0.268179 C.3       1 <1>        -0.005773 
      2 C           0.734739   -2.181388   -0.233196 C.3       1 <1>         0.019124 
      3 C          -1.475191   -1.278549   -1.353663 C.3       1 <1>        -0.022249 
      4 C          -1.110806   -3.742513   -0.497359 C.3       1 <1>         0.054187 
      5 C           1.360361   -1.477375    1.019143 C.3       1 <1>        -0.019828 
      6 C           1.176418   -3.658893   -0.471569 C.3       1 <1>         0.159577 
      7 C          -2.292923   -0.038120   -0.916347 C.ar      1 <1>        -0.044414 
      8 O           0.058361   -4.189836   -1.189762 O.3       1 <1>        -0.350925 
      9 C           2.196358   -0.187453    0.836914 C.ar      1 <1>        -0.044327 
     10 O           1.326062   -4.416178    0.739682 O.3       1 <1>        -0.366717 
     11 C          -2.494992    0.421621    0.490465 C.ar      1 <1>        -0.025844 
     12 C          -2.915641    0.714933   -1.966146 C.ar      1 <1>        -0.055962 
     13 C           2.415794    0.545975   -0.448151 C.ar      1 <1>        -0.025843 
     14 C           2.817519    0.328074    2.020570 C.ar      1 <1>        -0.055961 
     15 C          -3.337933    1.490836    0.702040 C.ar      1 <1>         0.109284 
     16 C          -3.789766    1.884148   -1.689959 C.ar      1 <1>        -0.028777 
     17 C           3.263929    1.628819   -0.431707 C.ar      1 <1>         0.109284 
     18 C           3.701771    1.521517    1.992393 C.ar      1 <1>        -0.028777 
     19 C          -3.984190    2.211246   -0.373271 C.ar      1 <1>         0.109044 
     20 O          -3.661482    2.011095    1.935560 O.3       1 <1>        -0.315043 
     21 C           3.905437    2.109802    0.771970 C.ar      1 <1>         0.109044 
     22 O           3.599429    2.385310   -1.532244 O.3       1 <1>        -0.315043 
     23 O          -4.780083    3.235881    0.084464 O.3       1 <1>        -0.315052 
     24 C          -4.592690    3.071258    1.530456 C.3       1 <1>         0.160031 
     25 O           4.710149    3.200194    0.537710 O.3       1 <1>        -0.315052 
     26 C           4.514528    3.348455   -0.908843 C.3       1 <1>         0.160031 
     27 H          -1.304428   -2.028952    0.701862 H         1 <1>         0.033042 
     28 H           1.116541   -1.712769   -1.141132 H         1 <1>         0.035622 
     29 H          -0.728236   -0.897240   -2.063089 H         1 <1>         0.031668 
     30 H          -2.183878   -1.863190   -1.957876 H         1 <1>         0.031668 
     31 H          -1.157201   -4.287638    0.463813 H         1 <1>         0.056363 
     32 H          -2.037001   -3.979465   -1.041018 H         1 <1>         0.056363 
     33 H           0.577199   -1.222752    1.748064 H         1 <1>         0.031754 
     34 H           2.036495   -2.191693    1.512940 H         1 <1>         0.031754 
     35 H           2.096476   -3.752006   -1.079509 H         1 <1>         0.091028 
     36 H           1.474311   -5.338484    0.550475 H         1 <1>         0.212487 
     37 H          -2.018178   -0.031164    1.347842 H         1 <1>         0.064685 
     38 H          -2.761327    0.425060   -3.000205 H         1 <1>         0.062110 
     39 H           1.952459    0.287782   -1.388998 H         1 <1>         0.064685 
     40 H           2.653041   -0.165905    2.972648 H         1 <1>         0.062110 
     41 H          -4.261794    2.452059   -2.484823 H         1 <1>         0.064421 
     42 H           4.173184    1.910123    2.888497 H         1 <1>         0.064421 
     43 H          -5.576379    2.863127    1.981651 H         1 <1>         0.087950 
     44 H          -4.223537    4.025285    1.937251 H         1 <1>         0.087950 
     45 H           5.496843    3.262856   -1.400318 H         1 <1>         0.087950 
     46 H           4.122650    4.360144   -1.095638 H         1 <1>         0.087950 
@<TRIPOS>BOND
     1    1    2 1    
     2    1    3 1    
     3    1    4 1    
     4    1   27 1    
     5    2    5 1    
     6    2    6 1    
     7    2   28 1    
     8    3    7 1    
     9    3   29 1    
    10    3   30 1    
    11    4    8 1    
    12    4   31 1    
    13    4   32 1    
    14    5    9 1    
    15    5   33 1    
    16    5   34 1    
    17    6    8 1    
    18    6   10 1    
    19    6   35 1    
    20    7   11 1    
    21    7   12 2    
    22    9   13 1    
    23    9   14 2    
    24   10   36 1    
    25   11   15 2    
    26   11   37 1    
    27   12   16 1    
    28   12   38 1    
    29   13   17 2    
    30   13   39 1    
    31   14   18 1    
    32   14   40 1    
    33   15   19 1    
    34   15   20 1    
    35   16   19 2    
    36   16   41 1    
    37   17   21 1    
    38   17   22 1    
    39   18   21 2    
    40   18   42 1    
    41   19   23 1    
    42   20   24 1    
    43   21   25 1    
    44   22   26 1    
    45   23   24 1    
    46   24   43 1    
    47   24   44 1    
    48   25   26 1    
    49   26   45 1    
    50   26   46 1    
@<TRIPOS>SUBSTRUCTURE
     1 ****        1 TEMP              0 ****  ****    0 ROOT 
@<TRIPOS>NORMAL
@<TRIPOS>FF_PBC
FORCE_FIELD_SETUP_FEATURE Force Field Setup information
v1.0  0 0.000000 0.000000 0.000000 0.000000 0.000000 0.000000 NONE 0 0 0 0 1 0 0 0 0 0 0 0 0
