@<TRIPOS>MOLECULE
MOL013161
   83    82     1     1     0
SMALL
GASTEIGER


@<TRIPOS>ATOM
      1 C          -2.608661    6.152592    0.429522 C.3       1 <1>        -0.053057 
      2 C          -1.269689    5.370388    0.515722 C.3       1 <1>        -0.053057 
      3 C          -2.381774    7.689197    0.423780 C.3       1 <1>        -0.053057 
      4 C          -1.522674    3.838193    0.486586 C.3       1 <1>        -0.053057 
      5 C          -3.730232    8.447328    0.281961 C.3       1 <1>        -0.053057 
      6 C          -0.195649    3.032319    0.527450 C.3       1 <1>        -0.053057 
      7 C          -3.522566    9.986175    0.234237 C.3       1 <1>        -0.053045 
      8 C          -0.472926    1.504496    0.476095 C.3       1 <1>        -0.053057 
      9 C          -4.858315   10.784534    0.221785 C.3       1 <1>        -0.052596 
     10 C           0.844090    0.681968    0.491569 C.3       1 <1>        -0.053057 
     11 C          -5.746642   10.476243   -1.015979 C.3       1 <1>        -0.044055 
     12 C           0.550319   -0.842463    0.441128 C.3       1 <1>        -0.053057 
     13 C          -6.985309   11.410373   -1.079742 C.3       1 <1>         0.033189 
     14 C           1.861811   -1.674092    0.443525 C.3       1 <1>        -0.053057 
     15 C          -7.880918   11.095636   -2.249935 C.2       1 <1>         0.261905 
     16 C           1.562971   -3.197671    0.401788 C.3       1 <1>        -0.053057 
     17 O          -9.006484   11.823214   -2.306070 O.3       1 <1>        -0.318522 
     18 O          -7.592592   10.242341   -3.075064 O.2       1 <1>        -0.264985 
     19 C           2.873743   -4.031503    0.397022 C.3       1 <1>        -0.053057 
     20 C          -9.851350   11.500791   -3.428501 C.3       1 <1>         0.045865 
     21 C           2.574625   -5.555543    0.368632 C.3       1 <1>        -0.053057 
     22 C           3.884884   -6.389980    0.368954 C.3       1 <1>        -0.053057 
     23 C           3.586671   -7.914660    0.356878 C.3       1 <1>        -0.053057 
     24 C           4.898128   -8.747378    0.363014 C.3       1 <1>        -0.053057 
     25 C           4.604109  -10.273033    0.360789 C.3       1 <1>        -0.053057 
     26 C           5.918318  -11.101929    0.366943 C.3       1 <1>        -0.053065 
     27 C           5.628835  -12.628389    0.369320 C.3       1 <1>        -0.053306 
     28 C           6.945387  -13.452700    0.375730 C.3       1 <1>        -0.055911 
     29 C           6.660849  -14.977283    0.380572 C.3       1 <1>        -0.065276 
     30 H          -3.133530    5.861857   -0.495295 H         1 <1>         0.026528 
     31 H          -3.246871    5.881886    1.286767 H         1 <1>         0.026528 
     32 H          -0.743818    5.640322    1.446349 H         1 <1>         0.026528 
     33 H          -0.629253    5.649866   -0.336984 H         1 <1>         0.026528 
     34 H          -1.883474    7.989343    1.360246 H         1 <1>         0.026528 
     35 H          -1.724586    7.958565   -0.419730 H         1 <1>         0.026528 
     36 H          -2.070520    3.579464   -0.434589 H         1 <1>         0.026528 
     37 H          -2.147966    3.556367    1.349888 H         1 <1>         0.026528 
     38 H          -4.212080    8.107732   -0.647790 H         1 <1>         0.026528 
     39 H          -4.385868    8.192000    1.130565 H         1 <1>         0.026528 
     40 H           0.353793    3.276121    1.451498 H         1 <1>         0.026528 
     41 H           0.431717    3.317729   -0.332783 H         1 <1>         0.026528 
     42 H          -2.947229   10.292606    1.123921 H         1 <1>         0.026529 
     43 H          -2.930181   10.248159   -0.657815 H         1 <1>         0.026529 
     44 H          -1.035312    1.267973   -0.442330 H         1 <1>         0.026528 
     45 H          -1.091940    1.218822    1.342750 H         1 <1>         0.026528 
     46 H          -4.613260   11.860020    0.222519 H         1 <1>         0.026540 
     47 H          -5.425468   10.566021    1.141921 H         1 <1>         0.026540 
     48 H           1.410758    0.916994    1.407815 H         1 <1>         0.026528 
     49 H           1.460262    0.963963   -0.378229 H         1 <1>         0.026528 
     50 H          -6.114636    9.438835   -0.969361 H         1 <1>         0.027004 
     51 H          -5.152540   10.597919   -1.936969 H         1 <1>         0.027004 
     52 H          -0.024233   -1.073789   -0.470943 H         1 <1>         0.026528 
     53 H          -0.061002   -1.123474    1.314425 H         1 <1>         0.026528 
     54 H          -6.661426   12.458793   -1.171196 H         1 <1>         0.036606 
     55 H          -7.577095   11.305809   -0.156712 H         1 <1>         0.036606 
     56 H           2.439925   -1.440411    1.352864 H         1 <1>         0.026528 
     57 H           2.469909   -1.397313   -0.433437 H         1 <1>         0.026528 
     58 H           0.979752   -3.431194   -0.504517 H         1 <1>         0.026528 
     59 H           0.958974   -3.473666    1.282030 H         1 <1>         0.026528 
     60 H           3.460009   -3.791698    1.299357 H         1 <1>         0.026528 
     61 H           3.474300   -3.760789   -0.486963 H         1 <1>         0.026528 
     62 H         -10.740991   12.145550   -3.377453 H         1 <1>         0.052962 
     63 H         -10.181133   10.449692   -3.393129 H         1 <1>         0.052962 
     64 H          -9.337335   11.693373   -4.384022 H         1 <1>         0.052962 
     65 H           1.988904   -5.796167   -0.533794 H         1 <1>         0.026528 
     66 H           1.972456   -5.823886    1.252231 H         1 <1>         0.026528 
     67 H           4.473690   -6.142301    1.267642 H         1 <1>         0.026528 
     68 H           4.483613   -6.127546   -0.518823 H         1 <1>         0.026528 
     69 H           3.000016   -8.164374   -0.542551 H         1 <1>         0.026528 
     70 H           2.986544   -8.175596    1.244241 H         1 <1>         0.026528 
     71 H           5.486349   -8.492177    1.259904 H         1 <1>         0.026528 
     72 H           5.495776   -8.489812   -0.526962 H         1 <1>         0.026528 
     73 H           4.015391  -10.529434   -0.535450 H         1 <1>         0.026528 
     74 H           4.007257  -10.530044    1.251475 H         1 <1>         0.026528 
     75 H           6.507841  -10.842312    1.261890 H         1 <1>         0.026528 
     76 H           6.513926  -10.845894   -0.524784 H         1 <1>         0.026528 
     77 H           5.039949  -12.889853   -0.525293 H         1 <1>         0.026520 
     78 H           5.033960  -12.885461    1.261253 H         1 <1>         0.026520 
     79 H           7.537244  -13.194579    1.269638 H         1 <1>         0.026265 
     80 H           7.541965  -13.201326   -0.517069 H         1 <1>         0.026265 
     81 H           7.607597  -15.540521    0.384920 H         1 <1>         0.022978 
     82 H           6.087624  -15.264124   -0.514620 H         1 <1>         0.022978 
     83 H           6.083484  -15.257301    1.275277 H         1 <1>         0.022978 
@<TRIPOS>BOND
     1    1    2 1    
     2    1    3 1    
     3    1   30 1    
     4    1   31 1    
     5    2    4 1    
     6    2   32 1    
     7    2   33 1    
     8    3    5 1    
     9    3   34 1    
    10    3   35 1    
    11    4    6 1    
    12    4   36 1    
    13    4   37 1    
    14    5    7 1    
    15    5   38 1    
    16    5   39 1    
    17    6    8 1    
    18    6   40 1    
    19    6   41 1    
    20    7    9 1    
    21    7   42 1    
    22    7   43 1    
    23    8   10 1    
    24    8   44 1    
    25    8   45 1    
    26    9   11 1    
    27    9   46 1    
    28    9   47 1    
    29   10   12 1    
    30   10   48 1    
    31   10   49 1    
    32   11   13 1    
    33   11   50 1    
    34   11   51 1    
    35   12   14 1    
    36   12   52 1    
    37   12   53 1    
    38   13   15 1    
    39   13   54 1    
    40   13   55 1    
    41   14   16 1    
    42   14   56 1    
    43   14   57 1    
    44   15   17 1    
    45   15   18 2    
    46   16   19 1    
    47   16   58 1    
    48   16   59 1    
    49   17   20 1    
    50   19   21 1    
    51   19   60 1    
    52   19   61 1    
    53   20   62 1    
    54   20   63 1    
    55   20   64 1    
    56   21   22 1    
    57   21   65 1    
    58   21   66 1    
    59   22   23 1    
    60   22   67 1    
    61   22   68 1    
    62   23   24 1    
    63   23   69 1    
    64   23   70 1    
    65   24   25 1    
    66   24   71 1    
    67   24   72 1    
    68   25   26 1    
    69   25   73 1    
    70   25   74 1    
    71   26   27 1    
    72   26   75 1    
    73   26   76 1    
    74   27   28 1    
    75   27   77 1    
    76   27   78 1    
    77   28   29 1    
    78   28   79 1    
    79   28   80 1    
    80   29   81 1    
    81   29   82 1    
    82   29   83 1    
@<TRIPOS>SUBSTRUCTURE
     1 ****        1 TEMP              0 ****  ****    0 ROOT 
@<TRIPOS>NORMAL
@<TRIPOS>FF_PBC
FORCE_FIELD_SETUP_FEATURE Force Field Setup information
v1.0  0 0.000000 0.000000 0.000000 0.000000 0.000000 0.000000 NONE 0 0 0 0 1 0 0 0 0 0 0 0 0
