@<TRIPOS>MOLECULE
MOL000715
   29    29     1     1     0
SMALL
GASTEIGER


@<TRIPOS>ATOM
      1 C          -0.664890   -0.051604    0.249470 C.3       1 <1>         0.019844 
      2 C           0.137395    1.230689    0.305818 C.2       1 <1>         0.136912 
      3 C           0.372533   -1.206265    0.145194 C.3       1 <1>        -0.043022 
      4 C          -1.642267   -0.187542    1.463671 C.3       1 <1>        -0.037204 
      5 C           1.053183    1.514104   -0.854212 C.3       1 <1>         0.008689 
      6 O           0.079943    2.004270    1.248333 O.2       1 <1>        -0.297097 
      7 C           1.337334   -0.995850   -1.055065 C.3       1 <1>        -0.049429 
      8 C          -2.779017    0.873238    1.368519 C.3       1 <1>        -0.062026 
      9 C          -2.287675   -1.599760    1.567687 C.3       1 <1>        -0.062026 
     10 C           2.085124    0.360846   -0.948565 C.3       1 <1>        -0.037186 
     11 C           3.034872    0.569029   -2.159318 C.3       1 <1>        -0.062029 
     12 H          -1.263707   -0.048804   -0.675906 H         1 <1>         0.037978 
     13 H          -0.131097   -2.172876   -0.014359 H         1 <1>         0.027212 
     14 H           0.949802   -1.263312    1.082654 H         1 <1>         0.027212 
     15 H          -1.075951   -0.012715    2.395361 H         1 <1>         0.030216 
     16 H           1.569197    2.476307   -0.705133 H         1 <1>         0.034424 
     17 H           0.457193    1.581062   -1.777504 H         1 <1>         0.034424 
     18 H           2.070434   -1.819648   -1.081683 H         1 <1>         0.026815 
     19 H           0.761205   -1.023270   -1.994721 H         1 <1>         0.026815 
     20 H          -3.426991    0.824354    2.257542 H         1 <1>         0.023252 
     21 H          -2.382518    1.896498    1.302597 H         1 <1>         0.023252 
     22 H          -3.399395    0.687855    0.478209 H         1 <1>         0.023252 
     23 H          -3.065014   -1.613152    2.347427 H         1 <1>         0.023252 
     24 H          -1.544164   -2.362804    1.842750 H         1 <1>         0.023252 
     25 H          -2.752352   -1.879437    0.609723 H         1 <1>         0.023252 
     26 H           2.692304    0.356527   -0.025585 H         1 <1>         0.030213 
     27 H           3.777136   -0.242919   -2.207615 H         1 <1>         0.023252 
     28 H           3.572351    1.525367   -2.063654 H         1 <1>         0.023252 
     29 H           2.465139    0.579814   -3.101236 H         1 <1>         0.023252 
@<TRIPOS>BOND
     1    1    2 1    
     2    1    3 1    
     3    1    4 1    
     4    1   12 1    
     5    2    5 1    
     6    2    6 2    
     7    3    7 1    
     8    3   13 1    
     9    3   14 1    
    10    4    8 1    
    11    4    9 1    
    12    4   15 1    
    13    5   10 1    
    14    5   16 1    
    15    5   17 1    
    16    7   10 1    
    17    7   18 1    
    18    7   19 1    
    19    8   20 1    
    20    8   21 1    
    21    8   22 1    
    22    9   23 1    
    23    9   24 1    
    24    9   25 1    
    25   10   11 1    
    26   10   26 1    
    27   11   27 1    
    28   11   28 1    
    29   11   29 1    
@<TRIPOS>SUBSTRUCTURE
     1 ****        1 TEMP              0 ****  ****    0 ROOT 
@<TRIPOS>NORMAL
@<TRIPOS>FF_PBC
FORCE_FIELD_SETUP_FEATURE Force Field Setup information
v1.0  0 0.000000 0.000000 0.000000 0.000000 0.000000 0.000000 NONE 0 0 0 0 1 0 0 0 0 0 0 0 0
