@<TRIPOS>MOLECULE
MOL006960
   59    59     1     1     0
SMALL
GASTEIGER


@<TRIPOS>ATOM
      1 C          -3.405667   -0.328954    1.187603 C.3       1 <1>        -0.020924 
      2 C          -3.012068    0.282150    2.555674 C.3       1 <1>         0.009887 
      3 C          -1.677820    0.980055    2.459381 C.2       1 <1>         0.136114 
      4 C          -1.625727    2.362159    1.854388 C.3       1 <1>         0.031865 
      5 C          -0.405835    2.530307    0.908921 C.3       1 <1>         0.061899 
      6 C          -0.513718    1.553827   -0.300282 C.3       1 <1>        -0.026454 
      7 C           0.645104    1.634559   -1.336785 C.3       1 <1>        -0.050713 
      8 C           2.040975    1.342478   -0.719116 C.3       1 <1>        -0.052977 
      9 C           3.135698    1.240434   -1.817092 C.3       1 <1>        -0.053056 
     10 C           4.531295    0.946867   -1.201087 C.3       1 <1>        -0.053057 
     11 C           5.622900    0.832494   -2.300150 C.3       1 <1>        -0.053065 
     12 C           7.014774    0.519573   -1.685813 C.3       1 <1>        -0.053306 
     13 C           8.102217    0.386497   -2.786577 C.3       1 <1>        -0.055911 
     14 C           9.489029    0.061411   -2.173030 C.3       1 <1>        -0.065276 
     15 O          -0.661485    0.436690    2.860462 O.2       1 <1>        -0.297311 
     16 C          -4.729240   -1.089714    1.326191 C.ar      1 <1>        -0.044363 
     17 C          -4.722468   -2.526334    1.695279 C.ar      1 <1>        -0.025965 
     18 C          -5.919958   -3.242987    1.820710 C.ar      1 <1>         0.105659 
     19 C          -7.223246   -2.568077    1.591054 C.ar      1 <1>         0.102451 
     20 C          -7.236467   -1.184365    1.238391 C.ar      1 <1>        -0.029141 
     21 C          -5.963782   -0.436540    1.105502 C.ar      1 <1>        -0.055971 
     22 O          -5.871800   -4.594761    2.166724 O.3       1 <1>        -0.345341 
     23 C          -6.194758   -5.493049    1.093191 C.3       1 <1>         0.043136 
     24 O          -8.414623   -3.290954    1.723068 O.3       1 <1>        -0.357269 
     25 O          -0.410690    3.904398    0.482023 O.3       1 <1>        -0.391370 
     26 H          -3.508161    0.455916    0.422302 H         1 <1>         0.031720 
     27 H          -2.619566   -1.024424    0.853091 H         1 <1>         0.031720 
     28 H          -2.943730   -0.521195    3.307152 H         1 <1>         0.034471 
     29 H          -3.784462    0.993024    2.889452 H         1 <1>         0.034471 
     30 H          -1.536368    3.081485    2.683513 H         1 <1>         0.036674 
     31 H          -2.547796    2.599777    1.302122 H         1 <1>         0.036674 
     32 H           0.503003    2.321085    1.499808 H         1 <1>         0.059722 
     33 H          -1.458291    1.763774   -0.828194 H         1 <1>         0.029013 
     34 H          -0.557946    0.519013    0.075518 H         1 <1>         0.029013 
     35 H           0.444798    0.880155   -2.116784 H         1 <1>         0.026608 
     36 H           0.655589    2.618534   -1.831607 H         1 <1>         0.026608 
     37 H           2.321076    2.149482   -0.023972 H         1 <1>         0.026529 
     38 H           2.000460    0.395102   -0.156764 H         1 <1>         0.026529 
     39 H           2.874525    0.431229   -2.518869 H         1 <1>         0.026528 
     40 H           3.175410    2.186956   -2.380944 H         1 <1>         0.026528 
     41 H           4.800924    1.755880   -0.502435 H         1 <1>         0.026528 
     42 H           4.485568    0.002245   -0.634544 H         1 <1>         0.026528 
     43 H           5.347968    0.029205   -3.003306 H         1 <1>         0.026528 
     44 H           5.676306    1.779564   -2.861954 H         1 <1>         0.026528 
     45 H           7.297039    1.326562   -0.989802 H         1 <1>         0.026520 
     46 H           6.958621   -0.422905   -1.116714 H         1 <1>         0.026520 
     47 H           7.822208   -0.417820   -3.487263 H         1 <1>         0.026265 
     48 H           8.170680    1.329674   -3.353948 H         1 <1>         0.026265 
     49 H          10.243768   -0.032492   -2.970008 H         1 <1>         0.022978 
     50 H           9.802724    0.863036   -1.486192 H         1 <1>         0.022978 
     51 H           9.449590   -0.887265   -1.615087 H         1 <1>         0.022978 
     52 H          -3.782813   -3.037529    1.872845 H         1 <1>         0.064684 
     53 H          -8.174616   -0.668704    1.064177 H         1 <1>         0.064412 
     54 H          -5.986639    0.614888    0.838193 H         1 <1>         0.062110 
     55 H          -6.110247   -6.522611    1.470696 H         1 <1>         0.052871 
     56 H          -5.489995   -5.364327    0.257054 H         1 <1>         0.052871 
     57 H          -7.221651   -5.336785    0.729802 H         1 <1>         0.052871 
     58 H          -9.202297   -2.764353    1.650992 H         1 <1>         0.217422 
     59 H           0.353621    4.148131   -0.029131 H         1 <1>         0.209791 
@<TRIPOS>BOND
     1    1    2 1    
     2    1   16 1    
     3    1   26 1    
     4    1   27 1    
     5    2    3 1    
     6    2   28 1    
     7    2   29 1    
     8    3    4 1    
     9    3   15 2    
    10    4    5 1    
    11    4   30 1    
    12    4   31 1    
    13    5    6 1    
    14    5   25 1    
    15    5   32 1    
    16    6    7 1    
    17    6   33 1    
    18    6   34 1    
    19    7    8 1    
    20    7   35 1    
    21    7   36 1    
    22    8    9 1    
    23    8   37 1    
    24    8   38 1    
    25    9   10 1    
    26    9   39 1    
    27    9   40 1    
    28   10   11 1    
    29   10   41 1    
    30   10   42 1    
    31   11   12 1    
    32   11   43 1    
    33   11   44 1    
    34   12   13 1    
    35   12   45 1    
    36   12   46 1    
    37   13   14 1    
    38   13   47 1    
    39   13   48 1    
    40   14   49 1    
    41   14   50 1    
    42   14   51 1    
    43   16   17 1    
    44   16   21 2    
    45   17   18 2    
    46   17   52 1    
    47   18   19 1    
    48   18   22 1    
    49   19   20 2    
    50   19   24 1    
    51   20   21 1    
    52   20   53 1    
    53   21   54 1    
    54   22   23 1    
    55   23   55 1    
    56   23   56 1    
    57   23   57 1    
    58   24   58 1    
    59   25   59 1    
@<TRIPOS>SUBSTRUCTURE
     1 ****        1 TEMP              0 ****  ****    0 ROOT 
@<TRIPOS>NORMAL
@<TRIPOS>FF_PBC
FORCE_FIELD_SETUP_FEATURE Force Field Setup information
v1.0  0 0.000000 0.000000 0.000000 0.000000 0.000000 0.000000 NONE 0 0 0 0 1 0 0 0 0 0 0 0 0
