@<TRIPOS>MOLECULE
MOL002883
   60    59     1     1     0
SMALL
GASTEIGER


@<TRIPOS>ATOM
      1 C           8.345903   -3.248458    0.000149 C.2       1 <1>         0.262151 
      2 C           6.839784   -3.189766   -0.000580 C.3       1 <1>         0.033199 
      3 C           6.270214   -1.744366   -0.000001 C.3       1 <1>        -0.044055 
      4 C           4.716953   -1.753802   -0.000193 C.3       1 <1>        -0.052596 
      5 C           4.136394   -0.313049    0.000039 C.3       1 <1>        -0.053036 
      6 C           2.583096   -0.334171    0.000183 C.3       1 <1>        -0.052779 
      7 C           1.992238    1.102469    0.000206 C.3       1 <1>        -0.049616 
      8 C           0.439547    1.072191    0.000874 C.3       1 <1>        -0.034761 
      9 C          -0.159434    2.459594    0.000612 C.2       1 <1>        -0.087932 
     10 C          -1.480141    2.690966   -0.000211 C.2       1 <1>        -0.087932 
     11 C          -2.516261    1.590590   -0.000855 C.3       1 <1>        -0.034761 
     12 C          -3.963606    2.153314   -0.000003 C.3       1 <1>        -0.049616 
     13 C          -5.016208    1.010719   -0.000289 C.3       1 <1>        -0.052779 
     14 C          -6.463883    1.573821    0.000116 C.3       1 <1>        -0.053048 
     15 C          -7.515487    0.430610   -0.000089 C.3       1 <1>        -0.053065 
     16 C          -8.963489    0.992777    0.000111 C.3       1 <1>        -0.053306 
     17 C         -10.013762   -0.151352   -0.000076 C.3       1 <1>        -0.055911 
     18 C         -11.459521    0.409807    0.000106 C.3       1 <1>        -0.065276 
     19 O           8.924900   -4.324123    0.001072 O.2       1 <1>        -0.264976 
     20 O           8.985265   -2.069369   -0.000463 O.3       1 <1>        -0.315471 
     21 C          10.422154   -2.182806    0.000210 C.3       1 <1>         0.054243 
     22 C          11.013784   -0.753539   -0.000293 C.3       1 <1>        -0.040980 
     23 H           6.483806   -3.726191   -0.894054 H         1 <1>         0.036606 
     24 H           6.483009   -3.727190    0.891913 H         1 <1>         0.036606 
     25 H           6.633655   -1.211797    0.894491 H         1 <1>         0.027004 
     26 H           6.633967   -1.210887   -0.893850 H         1 <1>         0.027004 
     27 H           4.356840   -2.289989   -0.893862 H         1 <1>         0.026540 
     28 H           4.356562   -2.290548    0.893038 H         1 <1>         0.026540 
     29 H           4.494313    0.224514    0.893562 H         1 <1>         0.026529 
     30 H           4.494236    0.224870   -0.893323 H         1 <1>         0.026529 
     31 H           2.226888   -0.873370   -0.893055 H         1 <1>         0.026538 
     32 H           2.226984   -0.873467    0.893482 H         1 <1>         0.026538 
     33 H           2.344728    1.643477    0.894207 H         1 <1>         0.026822 
     34 H           2.344082    1.643296   -0.894141 H         1 <1>         0.026822 
     35 H           0.092080    0.531552   -0.893725 H         1 <1>         0.030732 
     36 H           0.092807    0.532303    0.896188 H         1 <1>         0.030732 
     37 H           0.514398    3.318638    0.001131 H         1 <1>         0.056896 
     38 H          -1.821168    3.728137   -0.000431 H         1 <1>         0.056896 
     39 H          -2.376260    0.964835   -0.896402 H         1 <1>         0.030732 
     40 H          -2.375788    0.963229    0.893486 H         1 <1>         0.030732 
     41 H          -4.106806    2.782018    0.894540 H         1 <1>         0.026822 
     42 H          -4.107419    2.783179   -0.893624 H         1 <1>         0.026822 
     43 H          -4.870740    0.381526   -0.893882 H         1 <1>         0.026538 
     44 H          -4.870422    0.380636    0.892618 H         1 <1>         0.026538 
     45 H          -6.610126    2.202658    0.893773 H         1 <1>         0.026529 
     46 H          -6.610435    2.203423   -0.893014 H         1 <1>         0.026529 
     47 H          -7.369655   -0.198473   -0.893643 H         1 <1>         0.026528 
     48 H          -7.369514   -0.199086    0.893038 H         1 <1>         0.026528 
     49 H          -9.110901    1.621656    0.893607 H         1 <1>         0.026520 
     50 H          -9.111054    1.622183   -0.893050 H         1 <1>         0.026520 
     51 H          -9.872346   -0.782030   -0.893640 H         1 <1>         0.026265 
     52 H          -9.872275   -0.782468    0.893161 H         1 <1>         0.026265 
     53 H         -12.186722   -0.417514   -0.000085 H         1 <1>         0.022978 
     54 H         -11.631720    1.027650    0.895293 H         1 <1>         0.022978 
     55 H         -11.631837    1.027995   -0.894796 H         1 <1>         0.022978 
     56 H          10.772081   -2.719818   -0.898341 H         1 <1>         0.056303 
     57 H          10.771415   -2.718858    0.899596 H         1 <1>         0.056303 
     58 H          12.114633   -0.790907    0.000078 H         1 <1>         0.025189 
     59 H          10.674888   -0.208003    0.894282 H         1 <1>         0.025189 
     60 H          10.675577   -0.208935   -0.895690 H         1 <1>         0.025189 
@<TRIPOS>BOND
     1    1    2 1    
     2    1   19 2    
     3    1   20 1    
     4    2    3 1    
     5    2   23 1    
     6    2   24 1    
     7    3    4 1    
     8    3   25 1    
     9    3   26 1    
    10    4    5 1    
    11    4   27 1    
    12    4   28 1    
    13    5    6 1    
    14    5   29 1    
    15    5   30 1    
    16    6    7 1    
    17    6   31 1    
    18    6   32 1    
    19    7    8 1    
    20    7   33 1    
    21    7   34 1    
    22    8    9 1    
    23    8   35 1    
    24    8   36 1    
    25    9   10 2    
    26    9   37 1    
    27   10   11 1    
    28   10   38 1    
    29   11   12 1    
    30   11   39 1    
    31   11   40 1    
    32   12   13 1    
    33   12   41 1    
    34   12   42 1    
    35   13   14 1    
    36   13   43 1    
    37   13   44 1    
    38   14   15 1    
    39   14   45 1    
    40   14   46 1    
    41   15   16 1    
    42   15   47 1    
    43   15   48 1    
    44   16   17 1    
    45   16   49 1    
    46   16   50 1    
    47   17   18 1    
    48   17   51 1    
    49   17   52 1    
    50   18   53 1    
    51   18   54 1    
    52   18   55 1    
    53   20   21 1    
    54   21   22 1    
    55   21   56 1    
    56   21   57 1    
    57   22   58 1    
    58   22   59 1    
    59   22   60 1    
@<TRIPOS>SUBSTRUCTURE
     1 ****        1 TEMP              0 ****  ****    0 ROOT 
@<TRIPOS>NORMAL
@<TRIPOS>FF_PBC
FORCE_FIELD_SETUP_FEATURE Force Field Setup information
v1.0  0 0.000000 0.000000 0.000000 0.000000 0.000000 0.000000 NONE 0 0 0 0 1 0 0 0 0 0 0 0 0
