@<TRIPOS>MOLECULE
MOL000561
   52    55     1     1     0
SMALL
GASTEIGER


@<TRIPOS>ATOM
      1 C          -1.713589    1.872445    1.520689 C.ar      1 <1>         0.084562 
      2 C          -1.267011    2.763906    0.436155 C.ar      1 <1>         0.099001 
      3 C          -1.612576    0.401413    1.215487 C.2       1 <1>         0.223405 
      4 C          -2.193274    2.402419    2.738171 C.ar      1 <1>         0.088401 
      5 O          -0.803986    2.226230   -0.762417 O.3       1 <1>        -0.305122 
      6 C          -1.311758    4.150942    0.606054 C.ar      1 <1>        -0.000529 
      7 C          -0.939677   -0.016528   -0.031569 C.2       1 <1>         0.157590 
      8 O          -2.084494   -0.422851    1.982183 O.2       1 <1>        -0.284261 
      9 C          -2.238661    3.877221    2.909902 C.ar      1 <1>        -0.001302 
     10 O          -2.612447    1.545431    3.757230 O.3       1 <1>        -0.358954 
     11 C          -0.644824    0.906974   -0.970417 C.2       1 <1>         0.123961 
     12 C          -1.811362    4.729169    1.879855 C.ar      1 <1>         0.077519 
     13 O          -0.655392   -1.330690   -0.182867 O.3       1 <1>        -0.306082 
     14 C          -0.136435    0.567877   -2.352287 C.ar      1 <1>         0.008305 
     15 O          -1.864540    6.110821    2.072434 O.3       1 <1>        -0.359667 
     16 C           0.672017   -1.695662   -0.641302 C.3       1 <1>         0.193914 
     17 C           1.094643    1.218732   -2.858963 C.ar      1 <1>        -0.049598 
     18 C          -0.831366   -0.349746   -3.164070 C.ar      1 <1>        -0.049598 
     19 O           0.815832   -3.117048   -0.476981 O.3       1 <1>        -0.340164 
     20 C           1.861031   -0.947795    0.035641 C.3       1 <1>         0.134513 
     21 C           1.577913    0.906419   -4.138638 C.ar      1 <1>        -0.031302 
     22 C          -0.320251   -0.680925   -4.515520 C.ar      1 <1>        -0.031302 
     23 C           0.878710   -3.562995    0.895051 C.3       1 <1>         0.113017 
     24 C           1.934772   -1.316806    1.535631 C.3       1 <1>         0.114074 
     25 O           3.128566   -1.263973   -0.579595 O.3       1 <1>        -0.384091 
     26 C           0.863545   -0.068533   -4.995495 C.ar      1 <1>         0.072619 
     27 C           2.014727   -2.862761    1.690481 C.3       1 <1>         0.111896 
     28 C          -0.488793   -3.554012    1.627967 C.3       1 <1>         0.073015 
     29 O           0.811488   -0.726008    2.216421 O.3       1 <1>        -0.386401 
     30 O           1.374796   -0.362391   -6.262044 O.3       1 <1>        -0.359832 
     31 O           3.272199   -3.372719    1.197198 O.3       1 <1>        -0.386488 
     32 O          -0.377323   -4.335964    2.834185 O.3       1 <1>        -0.392366 
     33 H          -0.979858    4.794857   -0.200666 H         1 <1>         0.066947 
     34 H          -2.602239    4.311110    3.834519 H         1 <1>         0.066923 
     35 H          -2.935886    1.992635    4.530870 H         1 <1>         0.217342 
     36 H          -1.562803    6.614987    1.325028 H         1 <1>         0.217316 
     37 H           0.780839   -1.605601   -1.726505 H         1 <1>         0.094163 
     38 H           1.620488    1.936468   -2.237537 H         1 <1>         0.062504 
     39 H          -1.740269   -0.818736   -2.800642 H         1 <1>         0.062504 
     40 H           1.722139    0.143364   -0.033777 H         1 <1>         0.067108 
     41 H           2.480081    1.378794   -4.512100 H         1 <1>         0.064339 
     42 H          -0.861086   -1.395199   -5.126856 H         1 <1>         0.064339 
     43 H           1.150029   -4.629367    0.823416 H         1 <1>         0.064668 
     44 H           2.853333   -0.864387    1.949085 H         1 <1>         0.064758 
     45 H           3.175285   -1.044417   -1.504942 H         1 <1>         0.210111 
     46 H           1.931513   -3.134102    2.757158 H         1 <1>         0.064673 
     47 H          -0.800992   -2.536265    1.888547 H         1 <1>         0.058370 
     48 H          -1.246631   -3.990174    0.955290 H         1 <1>         0.058370 
     49 H           0.803811   -0.885969    3.155684 H         1 <1>         0.210005 
     50 H           0.865266   -0.997134   -6.752869 H         1 <1>         0.217313 
     51 H           4.036770   -3.006449    1.629755 H         1 <1>         0.210004 
     52 H          -1.194090   -4.386491    3.323068 H         1 <1>         0.209508 
@<TRIPOS>BOND
     1    1    2 1    
     2    1    3 1    
     3    1    4 2    
     4    2    5 1    
     5    2    6 2    
     6    3    7 1    
     7    3    8 2    
     8    4    9 1    
     9    4   10 1    
    10    5   11 1    
    11    6   12 1    
    12    6   33 1    
    13    7   11 2    
    14    7   13 1    
    15    9   12 2    
    16    9   34 1    
    17   10   35 1    
    18   11   14 1    
    19   12   15 1    
    20   13   16 1    
    21   14   17 1    
    22   14   18 2    
    23   15   36 1    
    24   16   19 1    
    25   16   20 1    
    26   16   37 1    
    27   17   21 2    
    28   17   38 1    
    29   18   22 1    
    30   18   39 1    
    31   19   23 1    
    32   20   24 1    
    33   20   25 1    
    34   20   40 1    
    35   21   26 1    
    36   21   41 1    
    37   22   26 2    
    38   22   42 1    
    39   23   27 1    
    40   23   28 1    
    41   23   43 1    
    42   24   27 1    
    43   24   29 1    
    44   24   44 1    
    45   25   45 1    
    46   26   30 1    
    47   27   31 1    
    48   27   46 1    
    49   28   32 1    
    50   28   47 1    
    51   28   48 1    
    52   29   49 1    
    53   30   50 1    
    54   31   51 1    
    55   32   52 1    
@<TRIPOS>SUBSTRUCTURE
     1 ****        1 TEMP              0 ****  ****    0 ROOT 
@<TRIPOS>NORMAL
@<TRIPOS>FF_PBC
FORCE_FIELD_SETUP_FEATURE Force Field Setup information
v1.0  0 0.000000 0.000000 0.000000 0.000000 0.000000 0.000000 NONE 0 0 0 0 1 0 0 0 0 0 0 0 0
