@<TRIPOS>MOLECULE
MOL010597
   96    95     1     1     0
SMALL
GASTEIGER


@<TRIPOS>ATOM
      1 O          14.014502   -0.753023   -0.000065 O.3       1 <1>        -0.395007 
      2 C           5.484320   17.762455   -0.003919 C.3       1 <1>        -0.053057 
      3 C           5.226317   16.230808   -0.003265 C.3       1 <1>        -0.053057 
      4 C           4.150442   18.558505   -0.002101 C.3       1 <1>        -0.053057 
      5 C           6.557414   15.430283   -0.002159 C.3       1 <1>        -0.053057 
      6 C           4.405276   20.090536   -0.001261 C.3       1 <1>        -0.053057 
      7 C           6.295357   13.899083   -0.000950 C.3       1 <1>        -0.053057 
      8 C           3.070831   20.885275    0.007478 C.3       1 <1>        -0.053057 
      9 C           7.625164   13.096317   -0.000096 C.3       1 <1>        -0.053057 
     10 C           3.325925   22.417278    0.004252 C.3       1 <1>        -0.053057 
     11 C           7.362373   11.565216    0.000389 C.3       1 <1>        -0.053057 
     12 C           1.991795   23.212246    0.023443 C.3       1 <1>        -0.053057 
     13 C           8.692148   10.762329    0.000396 C.3       1 <1>        -0.053057 
     14 C           2.247424   24.744125    0.003393 C.3       1 <1>        -0.053057 
     15 C           8.430083    9.231132    0.000362 C.3       1 <1>        -0.053057 
     16 C           0.914705   25.540947    0.035859 C.3       1 <1>        -0.053057 
     17 C           9.760903    8.429961    0.000173 C.3       1 <1>        -0.053057 
     18 C           1.172276   27.071983   -0.008333 C.3       1 <1>        -0.053057 
     19 C           9.501396    6.898389    0.000103 C.3       1 <1>        -0.053057 
     20 C          -0.158735   27.871100    0.036877 C.3       1 <1>        -0.053057 
     21 C          10.833619    6.099436   -0.000040 C.3       1 <1>        -0.053057 
     22 C           0.099082   29.401469   -0.027285 C.3       1 <1>        -0.053057 
     23 C          10.575826    4.567612    0.000047 C.3       1 <1>        -0.053056 
     24 C          -1.231134   30.201396    0.028170 C.3       1 <1>        -0.053057 
     25 C          11.908507    3.769400   -0.000111 C.3       1 <1>        -0.052986 
     26 C          -0.974934   31.731521   -0.045515 C.3       1 <1>        -0.053065 
     27 C          11.651333    2.237563    0.000029 C.3       1 <1>        -0.050987 
     28 C          -2.305550   32.530764    0.015112 C.3       1 <1>        -0.053306 
     29 C          12.984811    1.440868   -0.000106 C.3       1 <1>        -0.029718 
     30 C          -2.050520   34.060948   -0.059504 C.3       1 <1>        -0.055911 
     31 C          12.738115   -0.088826    0.000043 C.3       1 <1>         0.044206 
     32 C          -3.379564   34.858124   -0.000009 C.3       1 <1>        -0.065276 
     33 H           6.069655   18.033585   -0.897944 H         1 <1>         0.026528 
     34 H           6.071940   18.033727    0.888578 H         1 <1>         0.026528 
     35 H           4.639161   15.961467    0.890120 H         1 <1>         0.026528 
     36 H           4.639353   15.960493   -0.896541 H         1 <1>         0.026528 
     37 H           3.565382   18.286317    0.891796 H         1 <1>         0.026528 
     38 H           3.562841   18.287336   -0.894722 H         1 <1>         0.026528 
     39 H           7.144792   15.698965   -0.895563 H         1 <1>         0.026528 
     40 H           7.144489   15.700363    0.891063 H         1 <1>         0.026528 
     41 H           4.986675   20.363530   -0.897265 H         1 <1>         0.026528 
     42 H           4.995910   20.361287    0.889425 H         1 <1>         0.026528 
     43 H           5.707718   13.630906    0.892515 H         1 <1>         0.026528 
     44 H           5.707725   13.629442   -0.894014 H         1 <1>         0.026528 
     45 H           2.491037   20.614329    0.905198 H         1 <1>         0.026528 
     46 H           2.478269   20.612898   -0.881447 H         1 <1>         0.026528 
     47 H           8.212874   13.364730   -0.893406 H         1 <1>         0.026528 
     48 H           8.212539   13.365532    0.893259 H         1 <1>         0.026528 
     49 H           3.899688   22.688371   -0.897279 H         1 <1>         0.026528 
     50 H           3.924521   22.689615    0.889161 H         1 <1>         0.026528 
     51 H           6.775003   11.296686    0.893941 H         1 <1>         0.026528 
     52 H           6.774700   11.296122   -0.892766 H         1 <1>         0.026528 
     53 H           1.423566   22.948659    0.930679 H         1 <1>         0.026528 
     54 H           1.387853   22.932749   -0.855575 H         1 <1>         0.026528 
     55 H           9.279662   11.031162   -0.892900 H         1 <1>         0.026528 
     56 H           9.279818   11.031232    0.893602 H         1 <1>         0.026528 
     57 H           2.807254   25.007161   -0.909278 H         1 <1>         0.026528 
     58 H           2.859706   25.023825    0.876621 H         1 <1>         0.026528 
     59 H           7.842551    8.961884   -0.892858 H         1 <1>         0.026528 
     60 H           7.842751    8.961850    0.893702 H         1 <1>         0.026528 
     61 H           0.362570   25.289248    0.956281 H         1 <1>         0.026528 
     62 H           0.294892   25.251214   -0.828621 H         1 <1>         0.026528 
     63 H          10.348088    8.699615    0.893439 H         1 <1>         0.026528 
     64 H          10.347898    8.699714   -0.893204 H         1 <1>         0.026528 
     65 H           1.716268   27.322118   -0.934098 H         1 <1>         0.026528 
     66 H           1.800452   27.361651    0.850161 H         1 <1>         0.026528 
     67 H           8.914473    6.628260    0.893447 H         1 <1>         0.026528 
     68 H           8.914351    6.628347   -0.893223 H         1 <1>         0.026528 
     69 H          -0.696446   27.629960    0.968657 H         1 <1>         0.026528 
     70 H          -0.792433   27.572971   -0.814642 H         1 <1>         0.026528 
     71 H          11.420490    6.369964    0.893179 H         1 <1>         0.026528 
     72 H          11.420303    6.369938   -0.893425 H         1 <1>         0.026528 
     73 H           0.630349   29.642008   -0.962911 H         1 <1>         0.026528 
     74 H           0.739070   29.699683    0.819481 H         1 <1>         0.026528 
     75 H           9.989134    4.297265    0.893413 H         1 <1>         0.026528 
     76 H           9.988940    4.297210   -0.893197 H         1 <1>         0.026528 
     77 H          -1.758724   29.964797    0.966847 H         1 <1>         0.026528 
     78 H          -1.873869   29.898887   -0.814897 H         1 <1>         0.026528 
     79 H          12.495178    4.039961   -0.893455 H         1 <1>         0.026529 
     80 H          12.495365    4.040028    0.893075 H         1 <1>         0.026529 
     81 H          -0.449990   31.968249   -0.985671 H         1 <1>         0.026528 
     82 H          -0.329642   32.033770    0.795667 H         1 <1>         0.026528 
     83 H          11.065052    1.966413   -0.893357 H         1 <1>         0.026599 
     84 H          11.065195    1.966495    0.893577 H         1 <1>         0.026599 
     85 H          -2.830426   32.295158    0.955640 H         1 <1>         0.026520 
     86 H          -2.951652   32.228789   -0.825629 H         1 <1>         0.026520 
     87 H          13.576015    1.703150    0.892624 H         1 <1>         0.028724 
     88 H          13.575883    1.703076   -0.892941 H         1 <1>         0.028724 
     89 H          -1.528038   34.302717   -1.000140 H         1 <1>         0.026265 
     90 H          -1.407423   34.369476    0.781633 H         1 <1>         0.026265 
     91 H          12.161155   -0.371108   -0.897434 H         1 <1>         0.055696 
     92 H          12.161263   -0.371031    0.897629 H         1 <1>         0.055696 
     93 H          -4.031238   34.581685   -0.843550 H         1 <1>         0.022978 
     94 H          -3.911671   34.648916    0.941140 H         1 <1>         0.022978 
     95 H          -3.175725   35.939247   -0.054522 H         1 <1>         0.022978 
     96 H          13.942347   -1.702985    0.000020 H         1 <1>         0.209395 
@<TRIPOS>BOND
     1   31    1 1    
     2    1   96 1    
     3    3    2 1    
     4    2    4 1    
     5    2   33 1    
     6    2   34 1    
     7    5    3 1    
     8    3   35 1    
     9    3   36 1    
    10    4    6 1    
    11    4   37 1    
    12    4   38 1    
    13    7    5 1    
    14    5   39 1    
    15    5   40 1    
    16    6    8 1    
    17    6   41 1    
    18    6   42 1    
    19    9    7 1    
    20    7   43 1    
    21    7   44 1    
    22    8   10 1    
    23    8   45 1    
    24    8   46 1    
    25   11    9 1    
    26    9   47 1    
    27    9   48 1    
    28   10   12 1    
    29   10   49 1    
    30   10   50 1    
    31   13   11 1    
    32   11   51 1    
    33   11   52 1    
    34   12   14 1    
    35   12   53 1    
    36   12   54 1    
    37   15   13 1    
    38   13   55 1    
    39   13   56 1    
    40   14   16 1    
    41   14   57 1    
    42   14   58 1    
    43   17   15 1    
    44   15   59 1    
    45   15   60 1    
    46   16   18 1    
    47   16   61 1    
    48   16   62 1    
    49   19   17 1    
    50   17   63 1    
    51   17   64 1    
    52   18   20 1    
    53   18   65 1    
    54   18   66 1    
    55   21   19 1    
    56   19   67 1    
    57   19   68 1    
    58   20   22 1    
    59   20   69 1    
    60   20   70 1    
    61   23   21 1    
    62   21   71 1    
    63   21   72 1    
    64   22   24 1    
    65   22   73 1    
    66   22   74 1    
    67   25   23 1    
    68   23   75 1    
    69   23   76 1    
    70   24   26 1    
    71   24   77 1    
    72   24   78 1    
    73   27   25 1    
    74   25   79 1    
    75   25   80 1    
    76   26   28 1    
    77   26   81 1    
    78   26   82 1    
    79   29   27 1    
    80   27   83 1    
    81   27   84 1    
    82   28   30 1    
    83   28   85 1    
    84   28   86 1    
    85   29   31 1    
    86   29   87 1    
    87   29   88 1    
    88   30   32 1    
    89   30   89 1    
    90   30   90 1    
    91   31   91 1    
    92   31   92 1    
    93   32   93 1    
    94   32   94 1    
    95   32   95 1    
@<TRIPOS>SUBSTRUCTURE
     1 ****        2 TEMP              0 ****  ****    0 ROOT 
@<TRIPOS>NORMAL
@<TRIPOS>FF_PBC
FORCE_FIELD_SETUP_FEATURE Force Field Setup information
v1.0  0 0.000000 0.000000 0.000000 0.000000 0.000000 0.000000 NONE 0 0 0 0 1 0 0 0 0 0 0 0 0
