@<TRIPOS>MOLECULE
MOL013445
   33    34     1     1     0
SMALL
GASTEIGER


@<TRIPOS>ATOM
      1 C          -0.609468   -0.142698   -0.756223 C.3       1 <1>         0.093279 
      2 C          -0.859253   -1.508088   -0.071164 C.3       1 <1>         0.041257 
      3 C           0.392311   -2.337519   -0.156290 C.2       1 <1>         0.170896 
      4 C           1.731353   -1.634484   -0.118606 C.ar      1 <1>         0.077222 
      5 C           1.706508   -0.151304   -0.104864 C.ar      1 <1>         0.092348 
      6 O           0.490011    0.533618   -0.120642 O.3       1 <1>        -0.335907 
      7 C           2.854627    0.542674   -0.075706 C.ar      1 <1>        -0.001027 
      8 C           4.161829   -0.153183   -0.062744 C.ar      1 <1>         0.077503 
      9 C           4.187178   -1.521006   -0.068808 C.ar      1 <1>        -0.001314 
     10 C           2.917152   -2.294509   -0.098847 C.ar      1 <1>         0.087967 
     11 O           0.301421   -3.550095   -0.252423 O.2       1 <1>        -0.291783 
     12 O           2.938648   -3.690138   -0.106747 O.3       1 <1>        -0.358967 
     13 C          -1.851570    0.719913   -0.663295 C.2       1 <1>        -0.043317 
     14 C          -2.713649    0.763348   -1.906956 C.3       1 <1>        -0.041043 
     15 C          -3.643733    2.628051    1.984721 C.2       1 <1>         0.036321 
     16 C          -3.266772    2.281474    0.747528 C.2       1 <1>        -0.039264 
     17 C          -2.127035    1.376437    0.476291 C.2       1 <1>        -0.058476 
     18 O          -4.688920    3.449031    2.150630 O.3       1 <1>        -0.367417 
     19 O           5.336346    0.606205   -0.044295 O.3       1 <1>        -0.359667 
     20 H          -0.334511   -0.294902   -1.813547 H         1 <1>         0.065246 
     21 H          -1.695478   -2.027621   -0.566280 H         1 <1>         0.037389 
     22 H          -1.114316   -1.359241    0.988905 H         1 <1>         0.037389 
     23 H           2.831176    1.626969   -0.062675 H         1 <1>         0.066932 
     24 H           5.135089   -2.046630   -0.051506 H         1 <1>         0.066923 
     25 H           3.808462   -4.069711   -0.063725 H         1 <1>         0.217342 
     26 H          -3.721980    1.160596   -1.736966 H         1 <1>         0.027526 
     27 H          -2.217564    1.381500   -2.670600 H         1 <1>         0.027526 
     28 H          -2.837887   -0.255335   -2.304397 H         1 <1>         0.027526 
     29 H          -3.089079    2.229273    2.839895 H         1 <1>         0.088201 
     30 H          -3.846142    2.711158   -0.067681 H         1 <1>         0.063709 
     31 H          -1.435388    1.236157    1.308030 H         1 <1>         0.061849 
     32 H          -4.891647    3.625686    3.064320 H         1 <1>         0.216511 
     33 H           6.143626    0.108101   -0.112752 H         1 <1>         0.217316 
@<TRIPOS>BOND
     1    1    2 1    
     2    1    6 1    
     3   13    1 1    
     4    1   20 1    
     5    2    3 1    
     6    2   21 1    
     7    2   22 1    
     8    3    4 1    
     9    3   11 2    
    10    5    4 1    
    11    4   10 2    
    12    6    5 1    
    13    5    7 2    
    14    7    8 1    
    15    7   23 1    
    16    8    9 2    
    17    8   19 1    
    18   10    9 1    
    19    9   24 1    
    20   10   12 1    
    21   12   25 1    
    22   13   14 1    
    23   17   13 2    
    24   14   26 1    
    25   14   27 1    
    26   14   28 1    
    27   16   15 2    
    28   15   18 1    
    29   15   29 1    
    30   16   17 1    
    31   16   30 1    
    32   17   31 1    
    33   18   32 1    
    34   19   33 1    
@<TRIPOS>SUBSTRUCTURE
     1 ****       15 TEMP              0 ****  ****    0 ROOT 
@<TRIPOS>NORMAL
@<TRIPOS>FF_PBC
FORCE_FIELD_SETUP_FEATURE Force Field Setup information
v1.0  0 0.000000 0.000000 0.000000 0.000000 0.000000 0.000000 NONE 0 0 0 0 1 0 0 0 0 0 0 0 0
