@<TRIPOS>MOLECULE
MOL006121
   25    24     1     1     0
SMALL
GASTEIGER


@<TRIPOS>ATOM
      1 C          -3.827424    0.260180    0.134092 C.3       1 <1>        -0.038567 
      2 C          -2.501741   -0.537796    0.197208 C.3       1 <1>         0.080071 
      3 O          -1.433369    0.345832   -0.183390 O.3       1 <1>        -0.235037 
      4 Si          0.083600   -0.274007   -0.200794 Si        1 <1>         0.000000 
      5 O           1.032513    1.059853   -0.281423 O.3       1 <1>        -0.235037 
      6 C           2.374058    0.941755    0.222974 C.3       1 <1>         0.080071 
      7 C           3.087908    2.302535    0.029711 C.3       1 <1>        -0.038567 
      8 C           0.451494   -1.373160    1.282693 C.3       1 <1>        -0.068144 
      9 C           0.328895   -1.300723   -1.755871 C.3       1 <1>        -0.068144 
     10 H          -4.679114   -0.373229    0.427597 H         1 <1>         0.025271 
     11 H          -3.777315    1.124179    0.815106 H         1 <1>         0.025271 
     12 H          -3.995250    0.629500   -0.889370 H         1 <1>         0.025271 
     13 H          -2.557939   -1.401177   -0.485831 H         1 <1>         0.058860 
     14 H          -2.356844   -0.900155    1.227854 H         1 <1>         0.058860 
     15 H           2.360829    0.701144    1.298698 H         1 <1>         0.058860 
     16 H           2.925200    0.155243   -0.318304 H         1 <1>         0.058860 
     17 H           4.116575    2.262352    0.423164 H         1 <1>         0.025271 
     18 H           3.127375    2.558802   -1.040099 H         1 <1>         0.025271 
     19 H           2.537608    3.094988    0.560322 H         1 <1>         0.025271 
     20 H           1.491905   -1.724004    1.233568 H         1 <1>         0.022715 
     21 H          -0.216066   -2.246349    1.271405 H         1 <1>         0.022715 
     22 H           0.296208   -0.801897    2.209234 H         1 <1>         0.022715 
     23 H           0.075675   -0.692908   -2.636374 H         1 <1>         0.022715 
     24 H          -0.322610   -2.187001   -1.720847 H         1 <1>         0.022715 
     25 H           1.377926   -1.623960   -1.820823 H         1 <1>         0.022715 
@<TRIPOS>BOND
     1    1    2 1    
     2    1   10 1    
     3    1   11 1    
     4    1   12 1    
     5    2    3 1    
     6    2   13 1    
     7    2   14 1    
     8    3    4 1    
     9    4    5 1    
    10    4    8 1    
    11    4    9 1    
    12    5    6 1    
    13    6    7 1    
    14    6   15 1    
    15    6   16 1    
    16    7   17 1    
    17    7   18 1    
    18    7   19 1    
    19    8   20 1    
    20    8   21 1    
    21    8   22 1    
    22    9   23 1    
    23    9   24 1    
    24    9   25 1    
@<TRIPOS>SUBSTRUCTURE
     1 ****        1 TEMP              0 ****  ****    0 ROOT 
@<TRIPOS>NORMAL
@<TRIPOS>FF_PBC
FORCE_FIELD_SETUP_FEATURE Force Field Setup information
v1.0  0 0.000000 0.000000 0.000000 0.000000 0.000000 0.000000 NONE 0 0 0 0 1 0 0 0 0 0 0 0 0
