@<TRIPOS>MOLECULE
MOL005120
   49    48     1     1     0
SMALL
GASTEIGER


@<TRIPOS>ATOM
      1 C          -9.785639   -0.463500   -0.000033 C.2       1 <1>         0.120308 
      2 C          -8.463478   -1.186304    0.000231 C.3       1 <1>         0.002777 
      3 C          -7.261580   -0.203684   -0.000122 C.3       1 <1>        -0.046641 
      4 C          -5.907305   -0.964391    0.000096 C.3       1 <1>        -0.052682 
      5 C          -4.706774    0.021263   -0.000144 C.3       1 <1>        -0.053046 
      6 C          -3.350563   -0.736138    0.000072 C.3       1 <1>        -0.053057 
      7 C          -2.151967    0.251941   -0.000146 C.3       1 <1>        -0.053057 
      8 C          -0.794472   -0.503032    0.000082 C.3       1 <1>        -0.053057 
      9 C           0.402811    0.486711   -0.000135 C.3       1 <1>        -0.053057 
     10 C           1.760740   -0.267471    0.000093 C.3       1 <1>        -0.053057 
     11 C           2.958360    0.721838   -0.000126 C.3       1 <1>        -0.053057 
     12 C           4.315749   -0.033436    0.000099 C.3       1 <1>        -0.053057 
     13 C           5.514503    0.954490   -0.000122 C.3       1 <1>        -0.053065 
     14 C           6.871197    0.197845    0.000094 C.3       1 <1>        -0.053306 
     15 C           8.069888    1.185347   -0.000129 C.3       1 <1>        -0.055911 
     16 C           9.424061    0.429251    0.000089 C.3       1 <1>        -0.065276 
     17 O         -10.825231   -1.102483   -0.000785 O.2       1 <1>        -0.301035 
     18 H          -9.843212    0.624945    0.000473 H         1 <1>         0.102608 
     19 H          -8.420730   -1.828736    0.894102 H         1 <1>         0.033871 
     20 H          -8.420696   -1.829349   -0.893199 H         1 <1>         0.033871 
     21 H          -7.320307    0.438866   -0.894395 H         1 <1>         0.026918 
     22 H          -7.320263    0.439424    0.893752 H         1 <1>         0.026918 
     23 H          -5.850373   -1.607806    0.893601 H         1 <1>         0.026539 
     24 H          -5.850352   -1.608276   -0.893072 H         1 <1>         0.026539 
     25 H          -4.764085    0.664626   -0.893623 H         1 <1>         0.026529 
     26 H          -4.764107    0.665086    0.892995 H         1 <1>         0.026529 
     27 H          -3.292269   -1.379374    0.893581 H         1 <1>         0.026528 
     28 H          -3.292231   -1.379822   -0.893118 H         1 <1>         0.026528 
     29 H          -2.210519    0.895161   -0.893632 H         1 <1>         0.026528 
     30 H          -2.210566    0.895611    0.893004 H         1 <1>         0.026528 
     31 H          -0.735400   -1.146220    0.893564 H         1 <1>         0.026528 
     32 H          -0.735350   -1.146674   -0.893073 H         1 <1>         0.026528 
     33 H           0.343545    1.129888   -0.893635 H         1 <1>         0.026528 
     34 H           0.343496    1.130341    0.893034 H         1 <1>         0.026528 
     35 H           1.819761   -0.910619    0.893576 H         1 <1>         0.026528 
     36 H           1.819807   -0.911072   -0.893061 H         1 <1>         0.026528 
     37 H           2.899534    1.365037   -0.893615 H         1 <1>         0.026528 
     38 H           2.899491    1.365488    0.893027 H         1 <1>         0.026528 
     39 H           4.374328   -0.676639    0.893593 H         1 <1>         0.026528 
     40 H           4.374370   -0.677092   -0.893079 H         1 <1>         0.026528 
     41 H           5.456390    1.597780   -0.893588 H         1 <1>         0.026528 
     42 H           5.456350    1.598228    0.893006 H         1 <1>         0.026528 
     43 H           6.930324   -0.445364    0.893569 H         1 <1>         0.026520 
     44 H           6.930363   -0.445812   -0.893058 H         1 <1>         0.026520 
     45 H           8.017365    1.829483   -0.893793 H         1 <1>         0.026265 
     46 H           8.017325    1.829933    0.893214 H         1 <1>         0.026265 
     47 H          10.259240    1.147567   -0.000066 H         1 <1>         0.022978 
     48 H           9.509315   -0.206353    0.895273 H         1 <1>         0.022978 
     49 H           9.509355   -0.206800   -0.894772 H         1 <1>         0.022978 
@<TRIPOS>BOND
     1    1    2 1    
     2    1   17 2    
     3    1   18 1    
     4    2    3 1    
     5    2   19 1    
     6    2   20 1    
     7    3    4 1    
     8    3   21 1    
     9    3   22 1    
    10    4    5 1    
    11    4   23 1    
    12    4   24 1    
    13    5    6 1    
    14    5   25 1    
    15    5   26 1    
    16    6    7 1    
    17    6   27 1    
    18    6   28 1    
    19    7    8 1    
    20    7   29 1    
    21    7   30 1    
    22    8    9 1    
    23    8   31 1    
    24    8   32 1    
    25    9   10 1    
    26    9   33 1    
    27    9   34 1    
    28   10   11 1    
    29   10   35 1    
    30   10   36 1    
    31   11   12 1    
    32   11   37 1    
    33   11   38 1    
    34   12   13 1    
    35   12   39 1    
    36   12   40 1    
    37   13   14 1    
    38   13   41 1    
    39   13   42 1    
    40   14   15 1    
    41   14   43 1    
    42   14   44 1    
    43   15   16 1    
    44   15   45 1    
    45   15   46 1    
    46   16   47 1    
    47   16   48 1    
    48   16   49 1    
@<TRIPOS>SUBSTRUCTURE
     1 ****        1 TEMP              0 ****  ****    0 ROOT 
@<TRIPOS>NORMAL
@<TRIPOS>FF_PBC
FORCE_FIELD_SETUP_FEATURE Force Field Setup information
v1.0  0 0.000000 0.000000 0.000000 0.000000 0.000000 0.000000 NONE 0 0 0 0 1 0 0 0 0 0 0 0 0
