@<TRIPOS>MOLECULE
MOL002851
   40    42     1     1     0
SMALL
GASTEIGER


@<TRIPOS>ATOM
      1 O          -3.244838   -1.174205   -0.378056 O.3       1 <1>        -0.365030 
      2 C           0.785552   -0.578987   -0.212752 C.3       1 <1>        -0.029250 
      3 C           2.304778   -0.261509   -0.348455 C.3       1 <1>        -0.030966 
      4 C           0.608177    0.799261    0.491633 C.3       1 <1>        -0.016342 
      5 C           1.980066    1.232799   -0.080921 C.3       1 <1>        -0.040797 
      6 C          -2.037213   -1.016004    0.330942 C.3       1 <1>         0.093224 
      7 C           0.372565   -1.846654    0.593354 C.3       1 <1>        -0.046502 
      8 C          -2.335336   -0.398056   -1.110845 C.3       1 <1>         0.088402 
      9 C          -1.106197   -2.253645    0.331822 C.3       1 <1>        -0.021261 
     10 C          -0.538819    1.762235    0.221927 C.2       1 <1>        -0.073144 
     11 C          -2.518459    1.131718   -1.221066 C.3       1 <1>        -0.020183 
     12 C           2.906679   -0.544407   -1.752597 C.3       1 <1>        -0.059523 
     13 C           3.199564   -0.851027    0.780038 C.3       1 <1>        -0.059523 
     14 C          -1.139034    1.843290   -1.166096 C.3       1 <1>        -0.029288 
     15 C          -2.409410   -0.381788    1.694603 C.3       1 <1>        -0.033358 
     16 C          -1.016815    2.549652    1.196787 C.2       1 <1>        -0.099174 
     17 H           0.356056   -0.611816   -1.222406 H         1 <1>         0.031168 
     18 H           0.739790    0.670620    1.578547 H         1 <1>         0.034853 
     19 H           1.869003    1.816034   -1.008641 H         1 <1>         0.027630 
     20 H           2.645314    1.754941    0.625820 H         1 <1>         0.027630 
     21 H           0.525401   -1.690542    1.672274 H         1 <1>         0.026918 
     22 H           1.008049   -2.692126    0.284055 H         1 <1>         0.026918 
     23 H          -1.918734   -0.931431   -1.979251 H         1 <1>         0.062487 
     24 H          -1.172225   -2.763663   -0.642865 H         1 <1>         0.029375 
     25 H          -1.450181   -2.967807    1.096884 H         1 <1>         0.029375 
     26 H          -3.203065    1.524711   -0.456965 H         1 <1>         0.029409 
     27 H          -2.984228    1.323745   -2.201280 H         1 <1>         0.029409 
     28 H           3.927558   -0.137700   -1.809863 H         1 <1>         0.023508 
     29 H           2.945768   -1.630875   -1.922833 H         1 <1>         0.023508 
     30 H           2.308175   -0.086763   -2.555101 H         1 <1>         0.023508 
     31 H           2.791102   -0.659049    1.782802 H         1 <1>         0.023508 
     32 H           3.315850   -1.936914    0.650062 H         1 <1>         0.023508 
     33 H           4.198714   -0.392428    0.728688 H         1 <1>         0.023508 
     34 H          -1.298117    2.907942   -1.404949 H         1 <1>         0.031080 
     35 H          -0.464073    1.451648   -1.941054 H         1 <1>         0.031080 
     36 H          -2.963703   -1.129449    2.281127 H         1 <1>         0.025813 
     37 H          -1.500578   -0.117968    2.250425 H         1 <1>         0.025813 
     38 H          -3.040391    0.511022    1.602572 H         1 <1>         0.025813 
     39 H          -0.610321    2.532566    2.207437 H         1 <1>         0.053449 
     40 H          -1.837025    3.242926    1.012297 H         1 <1>         0.053449 
@<TRIPOS>BOND
     1    6    1 1    
     2    8    1 1    
     3    2    3 1    
     4    2    4 1    
     5    7    2 1    
     6    2   17 1    
     7    3    5 1    
     8    3   12 1    
     9    3   13 1    
    10    4    5 1    
    11    4   10 1    
    12    4   18 1    
    13    5   19 1    
    14    5   20 1    
    15    6    8 1    
    16    9    6 1    
    17    6   15 1    
    18    7    9 1    
    19    7   21 1    
    20    7   22 1    
    21    8   11 1    
    22    8   23 1    
    23    9   24 1    
    24    9   25 1    
    25   10   14 1    
    26   10   16 2    
    27   11   14 1    
    28   11   26 1    
    29   11   27 1    
    30   12   28 1    
    31   12   29 1    
    32   12   30 1    
    33   13   31 1    
    34   13   32 1    
    35   13   33 1    
    36   14   34 1    
    37   14   35 1    
    38   15   36 1    
    39   15   37 1    
    40   15   38 1    
    41   16   39 1    
    42   16   40 1    
@<TRIPOS>SUBSTRUCTURE
     1 ****        2 TEMP              0 ****  ****    0 ROOT 
@<TRIPOS>NORMAL
@<TRIPOS>FF_PBC
FORCE_FIELD_SETUP_FEATURE Force Field Setup information
v1.0  0 0.000000 0.000000 0.000000 0.000000 0.000000 0.000000 NONE 0 0 0 0 1 0 0 0 0 0 0 0 0
