@<TRIPOS>MOLECULE
MOL000023
   26    26     1     1     0
SMALL
GASTEIGER


@<TRIPOS>ATOM
      1 C          -1.439323    0.777617    0.380041 C.2       1 <1>        -0.076493 
      2 C          -0.380485    1.576361    0.578779 C.2       1 <1>        -0.084465 
      3 C           0.990421    1.068368    0.955725 C.3       1 <1>        -0.027992 
      4 C           1.173682   -0.445147    0.660331 C.3       1 <1>        -0.016697 
      5 C          -0.063410   -1.219631    1.181470 C.3       1 <1>        -0.042567 
      6 C          -1.372158   -0.727444    0.513814 C.3       1 <1>        -0.031457 
      7 C           1.538671   -0.799944   -0.778074 C.2       1 <1>        -0.076311 
      8 C           2.397154   -1.798336   -1.041328 C.2       1 <1>        -0.099437 
      9 C           0.917198   -0.014431   -1.920181 C.3       1 <1>        -0.043768 
     10 C          -2.791325    1.344635    0.006939 C.3       1 <1>        -0.043787 
     11 H          -0.489761    2.658392    0.480379 H         1 <1>         0.057172 
     12 H           1.781338    1.637177    0.438787 H         1 <1>         0.031313 
     13 H           1.095450    1.260372    2.037768 H         1 <1>         0.031313 
     14 H           2.027296   -0.758969    1.287063 H         1 <1>         0.034848 
     15 H           0.068644   -2.301514    1.011655 H         1 <1>         0.027408 
     16 H          -0.145288   -1.052639    2.269682 H         1 <1>         0.027408 
     17 H          -1.470587   -1.171006   -0.486384 H         1 <1>         0.031008 
     18 H          -2.228915   -1.078525    1.112226 H         1 <1>         0.031008 
     19 H           2.859993   -2.386522   -0.248478 H         1 <1>         0.053440 
     20 H           2.665557   -2.069790   -2.062378 H         1 <1>         0.053440 
     21 H           0.789687    1.051482   -1.695414 H         1 <1>         0.027436 
     22 H          -0.061010   -0.436488   -2.183658 H         1 <1>         0.027436 
     23 H           1.551377   -0.070022   -2.818210 H         1 <1>         0.027436 
     24 H          -3.284700    0.706758   -0.741347 H         1 <1>         0.027436 
     25 H          -2.715251    2.360292   -0.409933 H         1 <1>         0.027436 
     26 H          -3.418225    1.381070    0.909752 H         1 <1>         0.027436 
@<TRIPOS>BOND
     1    1    2 2    
     2    1    6 1    
     3    1   10 1    
     4    2    3 1    
     5    2   11 1    
     6    3    4 1    
     7    3   12 1    
     8    3   13 1    
     9    4    5 1    
    10    4    7 1    
    11    4   14 1    
    12    5    6 1    
    13    5   15 1    
    14    5   16 1    
    15    6   17 1    
    16    6   18 1    
    17    7    8 2    
    18    7    9 1    
    19    8   19 1    
    20    8   20 1    
    21    9   21 1    
    22    9   22 1    
    23    9   23 1    
    24   10   24 1    
    25   10   25 1    
    26   10   26 1    
@<TRIPOS>SUBSTRUCTURE
     1 ****        1 TEMP              0 ****  ****    0 ROOT 
@<TRIPOS>NORMAL
@<TRIPOS>FF_PBC
FORCE_FIELD_SETUP_FEATURE Force Field Setup information
v1.0  0 0.000000 0.000000 0.000000 0.000000 0.000000 0.000000 NONE 0 0 0 0 1 0 0 0 0 0 0 0 0
