@<TRIPOS>MOLECULE
MOL002910
   33    35     1     1     0
SMALL
GASTEIGER


@<TRIPOS>ATOM
      1 C          -0.984708   -0.247438    1.370701 C.ar      1 <1>         0.092530 
      2 C          -0.942558    1.059101    1.009493 C.ar      1 <1>         0.079761 
      3 O           0.167436   -0.918142    1.788217 O.3       1 <1>        -0.335583 
      4 C          -2.266524   -0.987039    1.326654 C.ar      1 <1>         0.001511 
      5 C           0.384733    1.781121    1.055467 C.2       1 <1>         0.170991 
      6 C          -2.184774    1.746898    0.575353 C.ar      1 <1>         0.117882 
      7 C           1.460865   -0.405881    1.420184 C.3       1 <1>         0.097162 
      8 C          -3.394016   -0.376384    0.924703 C.ar      1 <1>         0.107283 
      9 C           1.540491    1.106192    1.732031 C.3       1 <1>         0.041565 
     10 O           0.530465    2.886718    0.561983 O.2       1 <1>        -0.291782 
     11 C          -3.358699    1.060135    0.543918 C.ar      1 <1>         0.133286 
     12 O          -2.142044    3.095636    0.209744 O.3       1 <1>        -0.356602 
     13 C           1.895168   -0.719043   -0.026610 C.ar      1 <1>        -0.017820 
     14 O          -4.583627   -1.101801    0.869374 O.3       1 <1>        -0.357155 
     15 O          -4.526212    1.720213    0.154742 O.3       1 <1>        -0.355379 
     16 C           3.257703   -1.263435   -0.262315 C.ar      1 <1>        -0.053661 
     17 C           1.050075   -0.513434   -1.154123 C.ar      1 <1>        -0.053661 
     18 C           3.702133   -1.570054   -1.559720 C.ar      1 <1>        -0.031601 
     19 C           1.521761   -0.828660   -2.523977 C.ar      1 <1>        -0.031601 
     20 C           2.823061   -1.348648   -2.729012 C.ar      1 <1>         0.072600 
     21 O           3.295971   -1.656859   -4.007301 O.3       1 <1>        -0.359832 
     22 H          -2.291019   -2.031393    1.615635 H         1 <1>         0.067016 
     23 H           2.156558   -0.931644    2.094301 H         1 <1>         0.065571 
     24 H           1.434783    1.277764    2.814779 H         1 <1>         0.037400 
     25 H           2.502303    1.525825    1.396637 H         1 <1>         0.037400 
     26 H          -2.995270    3.437224   -0.041444 H         1 <1>         0.217446 
     27 H          -5.087051   -0.886581    0.091176 H         1 <1>         0.217423 
     28 H          -5.248661    1.519098    0.739841 H         1 <1>         0.217502 
     29 H           3.929383   -1.432474    0.573124 H         1 <1>         0.062190 
     30 H           0.048315   -0.124676   -1.041681 H         1 <1>         0.062190 
     31 H           4.697103   -1.972989   -1.715400 H         1 <1>         0.064329 
     32 H           0.858919   -0.656403   -3.364987 H         1 <1>         0.064329 
     33 H           2.689362   -1.451685   -4.709889 H         1 <1>         0.217313 
@<TRIPOS>BOND
     1    1    2 2    
     2    1    3 1    
     3    1    4 1    
     4    2    5 1    
     5    2    6 1    
     6    3    7 1    
     7    4    8 2    
     8    4   22 1    
     9    5    9 1    
    10    5   10 2    
    11    6   11 2    
    12    6   12 1    
    13    7    9 1    
    14    7   13 1    
    15    7   23 1    
    16    8   11 1    
    17    8   14 1    
    18    9   24 1    
    19    9   25 1    
    20   11   15 1    
    21   12   26 1    
    22   13   16 1    
    23   13   17 2    
    24   14   27 1    
    25   15   28 1    
    26   16   18 2    
    27   16   29 1    
    28   17   19 1    
    29   17   30 1    
    30   18   20 1    
    31   18   31 1    
    32   19   20 2    
    33   19   32 1    
    34   20   21 1    
    35   21   33 1    
@<TRIPOS>SUBSTRUCTURE
     1 ****        1 TEMP              0 ****  ****    0 ROOT 
@<TRIPOS>NORMAL
@<TRIPOS>FF_PBC
FORCE_FIELD_SETUP_FEATURE Force Field Setup information
v1.0  0 0.000000 0.000000 0.000000 0.000000 0.000000 0.000000 NONE 0 0 0 0 1 0 0 0 0 0 0 0 0
