@<TRIPOS>MOLECULE
MOL004833
   44    47     1     1     0
SMALL
GASTEIGER


@<TRIPOS>ATOM
      1 O          -3.601100    1.506709   -1.206454 O.3       1 <1>        -0.343732 
      2 O           4.137392    0.783931    0.656826 O.3       1 <1>        -0.334125 
      3 O           0.360853   -1.501414   -1.521636 O.3       1 <1>        -0.358879 
      4 O          -8.073071   -0.262838   -0.142775 O.3       1 <1>        -0.359750 
      5 C          -1.565589    0.383213   -0.527228 C.3       1 <1>         0.014552 
      6 C          -2.293666   -0.414935    0.579621 C.3       1 <1>        -0.016206 
      7 C          -0.063684    0.490967   -0.204262 C.ar      1 <1>        -0.011341 
      8 C          -2.283768    1.745473   -0.688800 C.3       1 <1>         0.061399 
      9 C          -3.810061   -0.353429    0.372593 C.ar      1 <1>        -0.016591 
     10 C           0.833814   -0.460356   -0.725601 C.ar      1 <1>         0.085668 
     11 C           5.107750   -0.150947    0.145656 C.3       1 <1>         0.088837 
     12 C           2.285719   -0.363296   -0.433831 C.ar      1 <1>         0.034756 
     13 C          -4.390770    0.595177   -0.499069 C.ar      1 <1>         0.081813 
     14 C           2.776638    0.670036    0.367929 C.ar      1 <1>         0.086876 
     15 C           0.466861    1.580683    0.654690 C.ar      1 <1>        -0.053307 
     16 C           1.835650    1.666184    0.926728 C.ar      1 <1>        -0.030631 
     17 C           4.553261   -1.262346   -0.716387 C.2       1 <1>        -0.051917 
     18 C           3.252538   -1.375728   -0.997277 C.2       1 <1>        -0.050895 
     19 C          -4.682578   -1.307889    1.099542 C.ar      1 <1>        -0.053677 
     20 C           6.113417    0.674336   -0.695922 C.3       1 <1>        -0.031936 
     21 C           5.806193   -0.778781    1.378091 C.3       1 <1>        -0.031936 
     22 C          -5.860516    0.627281   -0.679442 C.ar      1 <1>        -0.001642 
     23 C          -6.070279   -1.269020    0.923022 C.ar      1 <1>        -0.031521 
     24 C          -6.684169   -0.276588    0.010647 C.ar      1 <1>         0.075043 
     25 H          -1.693294   -0.139288   -1.490018 H         1 <1>         0.037526 
     26 H          -2.073581    0.022655    1.565866 H         1 <1>         0.032055 
     27 H          -1.952823   -1.462029    0.574904 H         1 <1>         0.032055 
     28 H          -2.385799    2.279223    0.268640 H         1 <1>         0.057101 
     29 H          -1.745065    2.390290   -1.400402 H         1 <1>         0.057101 
     30 H          -0.195164    2.321394    1.085987 H         1 <1>         0.062198 
     31 H           2.221265    2.464162    1.552289 H         1 <1>         0.064358 
     32 H           5.245849   -1.999071   -1.124974 H         1 <1>         0.060053 
     33 H           2.887945   -2.188000   -1.626789 H         1 <1>         0.062283 
     34 H          -4.242718   -2.038582    1.771039 H         1 <1>         0.062187 
     35 H           6.539188    1.486414   -0.087057 H         1 <1>         0.026052 
     36 H           6.934393    0.041214   -1.066076 H         1 <1>         0.026052 
     37 H           5.591329    1.119333   -1.556710 H         1 <1>         0.026052 
     38 H           6.617577   -1.456423    1.070900 H         1 <1>         0.026052 
     39 H           6.227801    0.011687    2.017556 H         1 <1>         0.026052 
     40 H           5.070067   -1.348293    1.965790 H         1 <1>         0.026052 
     41 H          -6.284688    1.361422   -1.354471 H         1 <1>         0.066918 
     42 H          -6.708701   -1.966855    1.454239 H         1 <1>         0.064330 
     43 H           0.197296   -2.274291   -0.991466 H         1 <1>         0.217351 
     44 H          -8.400914    0.430216   -0.704910 H         1 <1>         0.217315 
@<TRIPOS>BOND
     1    1    8 1    
     2   13    1 1    
     3    2   11 1    
     4   14    2 1    
     5   10    3 1    
     6    3   43 1    
     7   24    4 1    
     8    4   44 1    
     9    6    5 1    
    10    5    7 1    
    11    8    5 1    
    12    5   25 1    
    13    9    6 1    
    14    6   26 1    
    15    6   27 1    
    16    7   10 2    
    17    7   15 1    
    18    8   28 1    
    19    8   29 1    
    20   13    9 2    
    21    9   19 1    
    22   10   12 1    
    23   17   11 1    
    24   11   20 1    
    25   11   21 1    
    26   12   14 2    
    27   12   18 1    
    28   22   13 1    
    29   16   14 1    
    30   15   16 2    
    31   15   30 1    
    32   16   31 1    
    33   18   17 2    
    34   17   32 1    
    35   18   33 1    
    36   19   23 2    
    37   19   34 1    
    38   20   35 1    
    39   20   36 1    
    40   20   37 1    
    41   21   38 1    
    42   21   39 1    
    43   21   40 1    
    44   22   24 2    
    45   22   41 1    
    46   23   24 1    
    47   23   42 1    
@<TRIPOS>SUBSTRUCTURE
     1 ****        5 TEMP              0 ****  ****    0 ROOT 
@<TRIPOS>NORMAL
@<TRIPOS>FF_PBC
FORCE_FIELD_SETUP_FEATURE Force Field Setup information
v1.0  0 0.000000 0.000000 0.000000 0.000000 0.000000 0.000000 NONE 0 0 0 0 1 0 0 0 0 0 0 0 0
