@<TRIPOS>MOLECULE
MOL000868
   62    61     1     1     0
SMALL
GASTEIGER


@<TRIPOS>ATOM
      1 C         -12.183871   -0.451524   -0.000108 C.3       1 <1>        -0.065276 
      2 C         -10.908460    0.431008    0.000121 C.3       1 <1>        -0.055911 
      3 C          -9.621883   -0.438855   -0.000106 C.3       1 <1>        -0.053306 
      4 C          -8.341631    0.440849    0.000119 C.3       1 <1>        -0.053065 
      5 C          -7.056885   -0.432441   -0.000111 C.3       1 <1>        -0.053057 
      6 C          -5.774388    0.444052    0.000115 C.3       1 <1>        -0.053057 
      7 C          -4.491256   -0.431558   -0.000113 C.3       1 <1>        -0.053057 
      8 C          -3.207505    0.443125    0.000115 C.3       1 <1>        -0.053057 
      9 C          -1.925361   -0.434014   -0.000113 C.3       1 <1>        -0.053057 
     10 C          -0.640635    0.439217    0.000114 C.3       1 <1>        -0.053057 
     11 C           0.640635   -0.439217   -0.000114 C.3       1 <1>        -0.053057 
     12 C           1.925361    0.434014    0.000113 C.3       1 <1>        -0.053057 
     13 C           3.207505   -0.443125   -0.000115 C.3       1 <1>        -0.053057 
     14 C           4.491256    0.431558    0.000113 C.3       1 <1>        -0.053057 
     15 C           5.774388   -0.444052   -0.000115 C.3       1 <1>        -0.053057 
     16 C           7.056885    0.432441    0.000111 C.3       1 <1>        -0.053057 
     17 C           8.341631   -0.440849   -0.000119 C.3       1 <1>        -0.053065 
     18 C           9.621883    0.438855    0.000106 C.3       1 <1>        -0.053306 
     19 C          10.908460   -0.431008   -0.000121 C.3       1 <1>        -0.055911 
     20 C          12.183871    0.451524    0.000108 C.3       1 <1>        -0.065276 
     21 H         -13.084402    0.182846    0.000053 H         1 <1>         0.022978 
     22 H         -12.207409   -1.092475   -0.895266 H         1 <1>         0.022978 
     23 H         -12.207406   -1.092935    0.894710 H         1 <1>         0.022978 
     24 H         -10.917519    1.077206    0.893761 H         1 <1>         0.026265 
     25 H         -10.917521    1.077671   -0.893204 H         1 <1>         0.026265 
     26 H          -9.620368   -1.084693   -0.893626 H         1 <1>         0.026520 
     27 H          -9.620366   -1.085149    0.893062 H         1 <1>         0.026520 
     28 H          -8.343495    1.086705    0.893648 H         1 <1>         0.026528 
     29 H          -8.343496    1.087168   -0.893088 H         1 <1>         0.026528 
     30 H          -7.056202   -1.078331   -0.893578 H         1 <1>         0.026528 
     31 H          -7.056202   -1.078791    0.893017 H         1 <1>         0.026528 
     32 H          -5.774788    1.089897    0.893615 H         1 <1>         0.026528 
     33 H          -5.774789    1.090357   -0.893052 H         1 <1>         0.026528 
     34 H          -4.491428   -1.077426   -0.893536 H         1 <1>         0.026528 
     35 H          -4.491428   -1.077887    0.892977 H         1 <1>         0.026528 
     36 H          -3.206899    1.088998    0.893603 H         1 <1>         0.026528 
     37 H          -3.206899    1.089458   -0.893040 H         1 <1>         0.026528 
     38 H          -1.926170   -1.079866   -0.893593 H         1 <1>         0.026528 
     39 H          -1.926170   -1.080327    0.893033 H         1 <1>         0.026528 
     40 H          -0.639386    1.085097    0.893584 H         1 <1>         0.026528 
     41 H          -0.639386    1.085558   -0.893022 H         1 <1>         0.026528 
     42 H           0.639386   -1.085097   -0.893584 H         1 <1>         0.026528 
     43 H           0.639386   -1.085558    0.893022 H         1 <1>         0.026528 
     44 H           1.926170    1.079866    0.893593 H         1 <1>         0.026528 
     45 H           1.926170    1.080327   -0.893033 H         1 <1>         0.026528 
     46 H           3.206899   -1.088998   -0.893603 H         1 <1>         0.026528 
     47 H           3.206899   -1.089458    0.893040 H         1 <1>         0.026528 
     48 H           4.491428    1.077426    0.893536 H         1 <1>         0.026528 
     49 H           4.491428    1.077887   -0.892977 H         1 <1>         0.026528 
     50 H           5.774788   -1.089897   -0.893615 H         1 <1>         0.026528 
     51 H           5.774789   -1.090357    0.893052 H         1 <1>         0.026528 
     52 H           7.056202    1.078331    0.893578 H         1 <1>         0.026528 
     53 H           7.056202    1.078791   -0.893017 H         1 <1>         0.026528 
     54 H           8.343495   -1.086705   -0.893648 H         1 <1>         0.026528 
     55 H           8.343496   -1.087168    0.893088 H         1 <1>         0.026528 
     56 H           9.620368    1.084693    0.893626 H         1 <1>         0.026520 
     57 H           9.620366    1.085149   -0.893062 H         1 <1>         0.026520 
     58 H          10.917519   -1.077206   -0.893761 H         1 <1>         0.026265 
     59 H          10.917521   -1.077671    0.893204 H         1 <1>         0.026265 
     60 H          13.084402   -0.182846   -0.000053 H         1 <1>         0.022978 
     61 H          12.207409    1.092475    0.895266 H         1 <1>         0.022978 
     62 H          12.207406    1.092935   -0.894710 H         1 <1>         0.022978 
@<TRIPOS>BOND
     1    1    2 1    
     2    1   21 1    
     3    1   22 1    
     4    1   23 1    
     5    2    3 1    
     6    2   24 1    
     7    2   25 1    
     8    3    4 1    
     9    3   26 1    
    10    3   27 1    
    11    4    5 1    
    12    4   28 1    
    13    4   29 1    
    14    5    6 1    
    15    5   30 1    
    16    5   31 1    
    17    6    7 1    
    18    6   32 1    
    19    6   33 1    
    20    7    8 1    
    21    7   34 1    
    22    7   35 1    
    23    8    9 1    
    24    8   36 1    
    25    8   37 1    
    26    9   10 1    
    27    9   38 1    
    28    9   39 1    
    29   10   11 1    
    30   10   40 1    
    31   10   41 1    
    32   11   12 1    
    33   11   42 1    
    34   11   43 1    
    35   12   13 1    
    36   12   44 1    
    37   12   45 1    
    38   13   14 1    
    39   13   46 1    
    40   13   47 1    
    41   14   15 1    
    42   14   48 1    
    43   14   49 1    
    44   15   16 1    
    45   15   50 1    
    46   15   51 1    
    47   16   17 1    
    48   16   52 1    
    49   16   53 1    
    50   17   18 1    
    51   17   54 1    
    52   17   55 1    
    53   18   19 1    
    54   18   56 1    
    55   18   57 1    
    56   19   20 1    
    57   19   58 1    
    58   19   59 1    
    59   20   60 1    
    60   20   61 1    
    61   20   62 1    
@<TRIPOS>SUBSTRUCTURE
     1 ****        1 TEMP              0 ****  ****    0 ROOT 
@<TRIPOS>NORMAL
@<TRIPOS>FF_PBC
FORCE_FIELD_SETUP_FEATURE Force Field Setup information
v1.0  0 0.000000 0.000000 0.000000 0.000000 0.000000 0.000000 NONE 0 0 0 0 1 0 0 0 0 0 0 0 0
