@<TRIPOS>MOLECULE
MOL000467
   36    38     1     1     0
SMALL
GASTEIGER


@<TRIPOS>ATOM
      1 C           0.612809    1.881825    0.000089 C.2       1 <1>         0.058253 
      2 C           0.758995    0.539383   -0.000031 C.2       1 <1>         0.052567 
      3 C          -0.483833   -0.283720   -0.000155 C.2       1 <1>         0.198172 
      4 C          -1.827534    0.397188   -0.000021 C.ar      1 <1>         0.055343 
      5 C          -1.793592    1.864025    0.000074 C.ar      1 <1>         0.095734 
      6 O          -0.570498    2.519988    0.000099 O.3       1 <1>        -0.315351 
      7 C          -2.983552    2.594062    0.000143 C.ar      1 <1>         0.001818 
      8 C          -4.300503    1.903333    0.000154 C.ar      1 <1>         0.104959 
      9 C          -4.335774    0.465179    0.000102 C.ar      1 <1>         0.106240 
     10 C          -3.057808   -0.285710    0.000005 C.ar      1 <1>        -0.015824 
     11 O          -0.511029   -1.501365   -0.000383 O.2       1 <1>        -0.286477 
     12 C           2.157050   -0.085750   -0.000046 C.ar      1 <1>        -0.012138 
     13 C           3.404816    0.737405   -0.000137 C.ar      1 <1>        -0.051413 
     14 C           4.688535    0.164581   -0.000150 C.ar      1 <1>        -0.031115 
     15 C           4.879667   -1.299078   -0.000107 C.ar      1 <1>         0.075849 
     16 C           3.739464   -2.112658   -0.000023 C.ar      1 <1>        -0.031115 
     17 C           2.384034   -1.510139    0.000033 C.ar      1 <1>        -0.051413 
     18 O           6.183277   -1.814302   -0.000158 O.3       1 <1>        -0.347912 
     19 C           6.440896   -3.227905   -0.000325 C.3       1 <1>         0.043026 
     20 O          -5.527497   -0.276403    0.000136 O.3       1 <1>        -0.345327 
     21 C          -6.828636    0.331001    0.000322 C.3       1 <1>         0.043136 
     22 O          -5.480253    2.654320    0.000220 O.3       1 <1>        -0.357210 
     23 H           1.400579    2.624479    0.000192 H         1 <1>         0.089749 
     24 H          -2.931117    3.676905    0.000196 H         1 <1>         0.067029 
     25 H          -3.083425   -1.369835   -0.000051 H         1 <1>         0.065201 
     26 H           3.389380    1.816188   -0.000197 H         1 <1>         0.062443 
     27 H           5.568345    0.800174   -0.000196 H         1 <1>         0.064346 
     28 H           3.819445   -3.192708    0.000001 H         1 <1>         0.064346 
     29 H           1.579410   -2.225147    0.000140 H         1 <1>         0.062443 
     30 H           7.531573   -3.370516   -0.000397 H         1 <1>         0.052869 
     31 H           6.029519   -3.704497   -0.903368 H         1 <1>         0.052869 
     32 H           6.029616   -3.704702    0.902653 H         1 <1>         0.052869 
     33 H          -7.573316   -0.478323    0.000365 H         1 <1>         0.052871 
     34 H          -6.982090    0.938819    0.904973 H         1 <1>         0.052871 
     35 H          -6.982304    0.938917   -0.904226 H         1 <1>         0.052871 
     36 H          -5.344454    3.594888    0.000173 H         1 <1>         0.217423 
@<TRIPOS>BOND
     1    1    2 2    
     2    1    6 1    
     3    1   23 1    
     4    2    3 1    
     5    2   12 1    
     6    3    4 1    
     7    3   11 2    
     8    4    5 1    
     9    4   10 2    
    10    5    6 1    
    11    5    7 2    
    12    7    8 1    
    13    7   24 1    
    14    8    9 2    
    15    8   22 1    
    16    9   10 1    
    17    9   20 1    
    18   10   25 1    
    19   12   13 1    
    20   12   17 2    
    21   13   14 2    
    22   13   26 1    
    23   14   15 1    
    24   14   27 1    
    25   15   16 2    
    26   15   18 1    
    27   16   17 1    
    28   16   28 1    
    29   17   29 1    
    30   18   19 1    
    31   19   30 1    
    32   19   31 1    
    33   19   32 1    
    34   20   21 1    
    35   21   33 1    
    36   21   34 1    
    37   21   35 1    
    38   22   36 1    
@<TRIPOS>SUBSTRUCTURE
     1 ****        1 TEMP              0 ****  ****    0 ROOT 
@<TRIPOS>NORMAL
@<TRIPOS>FF_PBC
FORCE_FIELD_SETUP_FEATURE Force Field Setup information
v1.0  0 0.000000 0.000000 0.000000 0.000000 0.000000 0.000000 NONE 0 0 0 0 1 0 0 0 0 0 0 0 0
