@<TRIPOS>MOLECULE
MOL004368
   53    56     1     1     0
SMALL
GASTEIGER


@<TRIPOS>ATOM
      1 C          -0.509679    1.037595   -0.773332 C.2       1 <1>         0.124041 
      2 C          -1.021885    0.249250    0.200390 C.2       1 <1>         0.157591 
      3 C          -0.053083    0.610993   -2.150176 C.ar      1 <1>         0.010738 
      4 O          -0.357342    2.364676   -0.613018 O.3       1 <1>        -0.305121 
      5 C          -1.539946    0.873586    1.436063 C.2       1 <1>         0.223405 
      6 O          -1.117078   -1.101560    0.129966 O.3       1 <1>        -0.306082 
      7 C           1.334234    0.946563   -2.553171 C.ar      1 <1>        -0.019688 
      8 C          -0.897141   -0.047653   -3.054518 C.ar      1 <1>        -0.049435 
      9 C          -0.724124    3.063896    0.531938 C.ar      1 <1>         0.099001 
     10 C          -1.362626    2.352133    1.651508 C.ar      1 <1>         0.084562 
     11 O          -2.112026    0.195336    2.275191 O.2       1 <1>        -0.284261 
     12 C          -0.189293   -1.923234   -0.613944 C.3       1 <1>         0.193914 
     13 C           1.830767    0.547274   -3.792979 C.ar      1 <1>         0.102828 
     14 C          -0.365500   -0.498928   -4.363357 C.ar      1 <1>        -0.028769 
     15 C          -0.491291    4.438416    0.612735 C.ar      1 <1>        -0.000529 
     16 C          -1.755373    3.046682    2.809766 C.ar      1 <1>         0.088401 
     17 O          -0.570295   -3.281478   -0.322444 O.3       1 <1>        -0.340164 
     18 C           1.334115   -1.727629   -0.370257 C.3       1 <1>         0.134513 
     19 C           0.962226   -0.225446   -4.715905 C.ar      1 <1>         0.102222 
     20 O           3.136788    0.884197   -4.152826 O.3       1 <1>        -0.357261 
     21 C          -0.892115    5.187064    1.831690 C.ar      1 <1>         0.077519 
     22 C          -1.506258    4.508071    2.890547 C.ar      1 <1>        -0.001302 
     23 O          -2.365867    2.362022    3.860730 O.3       1 <1>        -0.358954 
     24 C          -0.321720   -3.698927    1.036845 C.3       1 <1>         0.113017 
     25 C           1.735912   -2.172961    1.056519 C.3       1 <1>         0.114074 
     26 O           2.035636   -2.489213   -1.379070 O.3       1 <1>        -0.384091 
     27 O           1.481491   -0.673025   -5.928787 O.3       1 <1>        -0.357274 
     28 O          -0.669027    6.560918    1.940443 O.3       1 <1>        -0.359667 
     29 C           1.197978   -3.603202    1.337872 C.3       1 <1>         0.111896 
     30 C          -1.252044   -3.036148    2.091609 C.3       1 <1>         0.073015 
     31 O           1.275443   -1.185881    1.998043 O.3       1 <1>        -0.386401 
     32 O           1.478376   -4.015224    2.689328 O.3       1 <1>        -0.386488 
     33 O          -1.311644   -3.844390    3.282654 O.3       1 <1>        -0.392366 
     34 H           1.970784    1.516233   -1.883535 H         1 <1>         0.065076 
     35 H          -1.931679   -0.244731   -2.791714 H         1 <1>         0.062506 
     36 H          -0.377237   -1.911395   -1.688641 H         1 <1>         0.094163 
     37 H          -1.003241   -1.050177   -5.045637 H         1 <1>         0.064422 
     38 H          -0.019238    4.946211   -0.221998 H         1 <1>         0.066947 
     39 H           1.596801   -0.664905   -0.468822 H         1 <1>         0.067108 
     40 H           3.322087    0.634786   -5.052691 H         1 <1>         0.217422 
     41 H          -1.797428    5.067293    3.773398 H         1 <1>         0.066923 
     42 H          -2.663160    2.923943    4.567221 H         1 <1>         0.217342 
     43 H          -0.600257   -4.765994    1.054905 H         1 <1>         0.064668 
     44 H           2.838789   -2.194881    1.113189 H         1 <1>         0.064758 
     45 H           2.982114   -2.388868   -1.365680 H         1 <1>         0.210111 
     46 H           1.421468   -1.619721   -5.993342 H         1 <1>         0.217422 
     47 H          -0.231412    6.938102    1.185707 H         1 <1>         0.217316 
     48 H           1.697896   -4.295085    0.635207 H         1 <1>         0.064673 
     49 H          -0.911911   -2.029724    2.359004 H         1 <1>         0.058370 
     50 H          -2.263003   -2.954812    1.659589 H         1 <1>         0.058370 
     51 H           1.486493   -1.417971    2.898444 H         1 <1>         0.210005 
     52 H           2.407085   -4.044868    2.896664 H         1 <1>         0.210004 
     53 H          -1.867083   -3.470018    3.960778 H         1 <1>         0.209508 
@<TRIPOS>BOND
     1    1    2 2    
     2    1    3 1    
     3    1    4 1    
     4    2    5 1    
     5    2    6 1    
     6    3    7 1    
     7    3    8 2    
     8    4    9 1    
     9    5   10 1    
    10    5   11 2    
    11    6   12 1    
    12    7   13 2    
    13    7   34 1    
    14    8   14 1    
    15    8   35 1    
    16    9   10 1    
    17    9   15 2    
    18   10   16 2    
    19   12   17 1    
    20   12   18 1    
    21   12   36 1    
    22   13   19 1    
    23   13   20 1    
    24   14   19 2    
    25   14   37 1    
    26   15   21 1    
    27   15   38 1    
    28   16   22 1    
    29   16   23 1    
    30   17   24 1    
    31   18   25 1    
    32   18   26 1    
    33   18   39 1    
    34   19   27 1    
    35   20   40 1    
    36   21   22 2    
    37   21   28 1    
    38   22   41 1    
    39   23   42 1    
    40   24   29 1    
    41   24   30 1    
    42   24   43 1    
    43   25   29 1    
    44   25   31 1    
    45   25   44 1    
    46   26   45 1    
    47   27   46 1    
    48   28   47 1    
    49   29   32 1    
    50   29   48 1    
    51   30   33 1    
    52   30   49 1    
    53   30   50 1    
    54   31   51 1    
    55   32   52 1    
    56   33   53 1    
@<TRIPOS>SUBSTRUCTURE
     1 ****        1 TEMP              0 ****  ****    0 ROOT 
@<TRIPOS>NORMAL
@<TRIPOS>FF_PBC
FORCE_FIELD_SETUP_FEATURE Force Field Setup information
v1.0  0 0.000000 0.000000 0.000000 0.000000 0.000000 0.000000 NONE 0 0 0 0 1 0 0 0 0 0 0 0 0
