@<TRIPOS>MOLECULE
MOL000712
   24    24     1     1     0
SMALL
GASTEIGER


@<TRIPOS>ATOM
      1 C          -0.460322    0.254878   -0.051532 C.ar      1 <1>        -0.041884 
      2 C           0.040715   -1.075756    0.408958 C.ar      1 <1>        -0.047024 
      3 C          -1.869029    0.413352   -0.228986 C.ar      1 <1>        -0.058075 
      4 C           0.429209    1.486498   -0.355418 C.3       1 <1>        -0.021266 
      5 C          -0.892777   -2.114964    0.681512 C.ar      1 <1>        -0.058571 
      6 C           1.529378   -1.398510    0.603857 C.3       1 <1>        -0.039443 
      7 C          -2.820018   -0.685427    0.053897 C.ar      1 <1>        -0.061477 
      8 C           1.549539    1.779566    0.681953 C.3       1 <1>        -0.058642 
      9 C           0.973734    1.426020   -1.806705 C.3       1 <1>        -0.058642 
     10 C          -2.347417   -1.912192    0.501204 C.ar      1 <1>        -0.061493 
     11 H          -2.279168    1.355334   -0.577607 H         1 <1>         0.062046 
     12 H          -0.220356    2.378364   -0.302313 H         1 <1>         0.034353 
     13 H          -0.551558   -3.085243    1.026803 H         1 <1>         0.062028 
     14 H           1.706074   -2.482143    0.674278 H         1 <1>         0.027762 
     15 H           2.120819   -1.037615   -0.246711 H         1 <1>         0.027762 
     16 H           1.882791   -0.940819    1.538813 H         1 <1>         0.027762 
     17 H          -3.885040   -0.529369   -0.086621 H         1 <1>         0.061767 
     18 H           1.881378    2.827272    0.597113 H         1 <1>         0.023545 
     19 H           1.168883    1.621027    1.702865 H         1 <1>         0.023545 
     20 H           2.439785    1.158327    0.524782 H         1 <1>         0.023545 
     21 H           1.529813    2.345968   -2.046186 H         1 <1>         0.023545 
     22 H           0.138046    1.327135   -2.517206 H         1 <1>         0.023545 
     23 H           1.646186    0.568323   -1.943936 H         1 <1>         0.023545 
     24 H          -3.039351   -2.720614    0.715875 H         1 <1>         0.061767 
@<TRIPOS>BOND
     1    1    2 1    
     2    1    3 2    
     3    1    4 1    
     4    2    5 2    
     5    2    6 1    
     6    3    7 1    
     7    3   11 1    
     8    4    8 1    
     9    4    9 1    
    10    4   12 1    
    11    5   10 1    
    12    5   13 1    
    13    6   14 1    
    14    6   15 1    
    15    6   16 1    
    16    7   10 2    
    17    7   17 1    
    18    8   18 1    
    19    8   19 1    
    20    8   20 1    
    21    9   21 1    
    22    9   22 1    
    23    9   23 1    
    24   10   24 1    
@<TRIPOS>SUBSTRUCTURE
     1 ****        1 TEMP              0 ****  ****    0 ROOT 
@<TRIPOS>NORMAL
@<TRIPOS>FF_PBC
FORCE_FIELD_SETUP_FEATURE Force Field Setup information
v1.0  0 0.000000 0.000000 0.000000 0.000000 0.000000 0.000000 NONE 0 0 0 0 1 0 0 0 0 0 0 0 0
