@<TRIPOS>MOLECULE
MOL004637
  123   130     1     1     0
SMALL
GASTEIGER


@<TRIPOS>ATOM
      1 C          -1.719364   -0.052574   -0.657783 C.3       1 <1>        -0.025376 
      2 C          -2.634388   -0.990149    0.164921 C.3       1 <1>         0.069511 
      3 C          -1.753249   -2.019449    0.972108 C.3       1 <1>         0.020641 
      4 C          -0.328307   -1.403671    1.313574 C.3       1 <1>        -0.025206 
      5 C          -0.273695    0.157322    1.530755 C.3       1 <1>        -0.021744 
      6 C          -0.853213    0.867379    0.245349 C.3       1 <1>        -0.044437 
      7 C           0.472273   -2.146878    2.435381 C.3       1 <1>        -0.048517 
      8 C           1.962526   -1.693442    2.536235 C.3       1 <1>        -0.046183 
      9 C           2.161998   -0.152147    2.716073 C.3       1 <1>        -0.016907 
     10 C           1.243837    0.581562    1.675316 C.3       1 <1>        -0.011151 
     11 C           3.672980    0.310134    2.433383 C.3       1 <1>         0.009124 
     12 C           3.783718    1.818945    2.843191 C.3       1 <1>         0.096991 
     13 C           2.624928    2.610237    2.266164 C.2       1 <1>        -0.055410 
     14 C           1.506598    2.072598    1.753298 C.2       1 <1>        -0.081074 
     15 C           4.728887   -0.505408    3.256518 C.3       1 <1>        -0.017380 
     16 C           6.122726    0.191915    3.387526 C.3       1 <1>         0.063916 
     17 C           6.010132    1.728354    3.709408 C.3       1 <1>         0.025848 
     18 C           5.167180    2.511051    2.680308 C.3       1 <1>         0.002843 
     19 C           7.404884    2.407457    3.921728 C.3       1 <1>        -0.042066 
     20 C           7.514253    3.793342    3.222147 C.3       1 <1>        -0.047195 
     21 C           7.151102    3.758153    1.690852 C.3       1 <1>        -0.034485 
     22 C           5.957905    2.779826    1.377400 C.3       1 <1>        -0.041426 
     23 C          -1.121069    0.648275    2.755646 C.3       1 <1>        -0.058736 
     24 C           1.702113    0.210991    4.179977 C.3       1 <1>        -0.058408 
     25 H           4.948676    3.537941    3.022627 H         1 <1>         0.033899 
     26 C           6.764851    5.205787    1.256566 C.3       1 <1>        -0.059801 
     27 O           6.891129   -0.167965    2.220621 O.3       1 <1>        -0.391131 
     28 C           5.024992    1.903410    4.894053 C.3       1 <1>         0.057154 
     29 O           3.712824    1.941883    4.287213 O.3       1 <1>        -0.367842 
     30 C           4.067991    0.181019    0.912354 C.3       1 <1>        -0.056020 
     31 H           0.276876   -1.587229    0.410974 H         1 <1>         0.031301 
     32 C           8.404111    3.338462    0.860101 C.3       1 <1>        -0.059801 
     33 C          -2.507218   -2.488981    2.257868 C.3       1 <1>        -0.054821 
     34 C          -1.594496   -3.289453    0.067367 C.3       1 <1>         0.052209 
     35 H           1.618426    0.300914    0.687168 H         1 <1>         0.035379 
     36 O          -3.531184   -1.549538   -0.836235 O.3       1 <1>        -0.344807 
     37 O          -0.772550   -4.312216    0.656175 O.3       1 <1>        -0.394374 
     38 C          -4.819982   -2.021927   -0.373896 C.3       1 <1>         0.188127 
     39 O          -4.976154   -3.446605   -0.537052 O.3       1 <1>        -0.343072 
     40 C          -5.118695   -3.893797   -1.903826 C.3       1 <1>         0.087317 
     41 C          -6.295903   -3.160719   -2.606320 C.3       1 <1>         0.109842 
     42 C          -6.070394   -1.622295   -2.571124 C.3       1 <1>         0.120486 
     43 C          -5.971393   -1.237094   -1.066264 C.3       1 <1>         0.134483 
     44 C          -4.587989    0.085394   -3.526997 C.3       1 <1>         0.188437 
     45 O          -5.604141    0.876928   -4.171682 O.3       1 <1>        -0.340520 
     46 C          -5.811695    0.587201   -5.574203 C.3       1 <1>         0.113005 
     47 C          -4.496723    0.477010   -6.402369 C.3       1 <1>         0.111896 
     48 C          -3.387983   -0.339549   -5.684189 C.3       1 <1>         0.114061 
     49 C          -3.222429    0.218193   -4.253249 C.3       1 <1>         0.134124 
     50 C          -3.793176   -3.925025   -2.717565 C.3       1 <1>        -0.036060 
     51 O          -6.469543   -3.685717   -3.938327 O.3       1 <1>        -0.386569 
     52 O          -4.929826   -1.311937   -3.412102 O.3       1 <1>        -0.340053 
     53 C          -6.810591   -0.568016   -5.840987 C.3       1 <1>         0.073015 
     54 O          -3.577014   -1.767946   -5.681043 O.3       1 <1>        -0.386401 
     55 O          -3.995206    1.796950   -6.697691 O.3       1 <1>        -0.386488 
     56 O          -2.789215    1.594700   -4.342888 O.3       1 <1>        -0.384104 
     57 O          -7.255610   -1.530362   -0.467755 O.3       1 <1>        -0.384094 
     58 O          -7.174605   -0.571343   -7.235331 O.3       1 <1>        -0.392366 
     59 H          -2.336832    0.593677   -1.300914 H         1 <1>         0.029048 
     60 H          -1.088574   -0.654863   -1.330448 H         1 <1>         0.029048 
     61 H          -3.210332   -0.325035    0.823696 H         1 <1>         0.060308 
     62 H          -1.453152    1.747592    0.531511 H         1 <1>         0.027158 
     63 H          -0.076620    1.261735   -0.430778 H         1 <1>         0.027158 
     64 H           0.512801   -3.227026    2.240042 H         1 <1>         0.026847 
     65 H          -0.032738   -2.052500    3.401935 H         1 <1>         0.026847 
     66 H           2.448599   -2.067622    1.627442 H         1 <1>         0.027097 
     67 H           2.436711   -2.217182    3.382503 H         1 <1>         0.027097 
     68 H           2.699460    3.698386    2.279493 H         1 <1>         0.059762 
     69 H           0.755281    2.763092    1.368633 H         1 <1>         0.057297 
     70 H           4.868005   -1.493772    2.789472 H         1 <1>         0.029668 
     71 H           4.384517   -0.716220    4.273554 H         1 <1>         0.029668 
     72 H           6.648037   -0.281865    4.238083 H         1 <1>         0.059965 
     73 H           8.226382    1.797658    3.529307 H         1 <1>         0.027239 
     74 H           7.600388    2.514066    5.001176 H         1 <1>         0.027239 
     75 H           6.862130    4.491236    3.771429 H         1 <1>         0.027062 
     76 H           8.536418    4.186035    3.352372 H         1 <1>         0.027062 
     77 H           5.284641    3.185554    0.605682 H         1 <1>         0.027428 
     78 H           6.380294    1.853960    0.983904 H         1 <1>         0.027428 
     79 H          -1.068440    0.000908    3.631267 H         1 <1>         0.023534 
     80 H          -2.190201    0.729584    2.530170 H         1 <1>         0.023534 
     81 H          -0.799615    1.654364    3.060471 H         1 <1>         0.023534 
     82 H           1.385308    1.259839    4.263378 H         1 <1>         0.023543 
     83 H           0.875928   -0.392083    4.552415 H         1 <1>         0.023543 
     84 H           2.462898    0.039451    4.945882 H         1 <1>         0.023543 
     85 H           7.570092    5.913402    1.508053 H         1 <1>         0.023499 
     86 H           5.845379    5.537168    1.762825 H         1 <1>         0.023499 
     87 H           6.591981    5.256603    0.170347 H         1 <1>         0.023499 
     88 H           7.819439    0.031526    2.235837 H         1 <1>         0.209802 
     89 H           5.110104    1.129497    5.671618 H         1 <1>         0.056652 
     90 H           5.165902    2.881754    5.381169 H         1 <1>         0.056652 
     91 H           3.652159   -0.698706    0.410796 H         1 <1>         0.023625 
     92 H           3.765918    1.067743    0.335140 H         1 <1>         0.023625 
     93 H           5.136240    0.057041    0.747420 H         1 <1>         0.023625 
     94 H           8.155837    3.295908   -0.211854 H         1 <1>         0.023499 
     95 H           9.226516    4.058603    0.990645 H         1 <1>         0.023499 
     96 H           8.769247    2.347467    1.167622 H         1 <1>         0.023499 
     97 H          -1.943780   -3.266285    2.792433 H         1 <1>         0.023667 
     98 H          -3.475143   -2.945359    2.017616 H         1 <1>         0.023667 
     99 H          -2.694601   -1.658092    2.948941 H         1 <1>         0.023667 
    100 H          -2.583576   -3.739515   -0.092596 H         1 <1>         0.056334 
    101 H          -1.181700   -3.017073   -0.917483 H         1 <1>         0.056334 
    102 H          -0.681750   -5.092108    0.115636 H         1 <1>         0.209420 
    103 H          -4.964748   -1.840066    0.700263 H         1 <1>         0.093748 
    104 H          -5.424409   -4.951585   -1.822246 H         1 <1>         0.062075 
    105 H          -7.206096   -3.406613   -2.028411 H         1 <1>         0.064594 
    106 H          -6.961962   -1.126445   -2.984560 H         1 <1>         0.065136 
    107 H          -5.810082   -0.155950   -0.935879 H         1 <1>         0.067105 
    108 H          -4.421446    0.532527   -2.540404 H         1 <1>         0.093753 
    109 H          -6.343317    1.474830   -5.956269 H         1 <1>         0.064668 
    110 H          -4.702697    0.010591   -7.379241 H         1 <1>         0.064673 
    111 H          -2.450748   -0.173481   -6.240938 H         1 <1>         0.064758 
    112 H          -2.462476   -0.392379   -3.734725 H         1 <1>         0.067095 
    113 H          -3.989299   -4.267586   -3.744679 H         1 <1>         0.025536 
    114 H          -3.092500   -4.640157   -2.261550 H         1 <1>         0.025536 
    115 H          -3.290576   -2.952621   -2.770422 H         1 <1>         0.025536 
    116 H          -7.265252   -3.379157   -4.360685 H         1 <1>         0.210002 
    117 H          -6.369894   -1.533935   -5.577769 H         1 <1>         0.058370 
    118 H          -7.711788   -0.407367   -5.225554 H         1 <1>         0.058370 
    119 H          -4.236272   -2.056454   -5.057423 H         1 <1>         0.210005 
    120 H          -3.738807    2.264319   -5.905647 H         1 <1>         0.210004 
    121 H          -2.636473    2.000937   -3.495146 H         1 <1>         0.210110 
    122 H          -7.321966   -1.311828    0.457192 H         1 <1>         0.210111 
    123 H          -7.798469   -1.255130   -7.463014 H         1 <1>         0.209508 
@<TRIPOS>BOND
     1    2    1 1    
     2    1    6 1    
     3    1   59 1    
     4    1   60 1    
     5    2    3 1    
     6   36    2 1    
     7    2   61 1    
     8    3    4 1    
     9    3   33 1    
    10    3   34 1    
    11    4    5 1    
    12    4    7 1    
    13    4   31 1    
    14    6    5 1    
    15    5   10 1    
    16    5   23 1    
    17    6   62 1    
    18    6   63 1    
    19    7    8 1    
    20    7   64 1    
    21    7   65 1    
    22    8    9 1    
    23    8   66 1    
    24    8   67 1    
    25   10    9 1    
    26    9   11 1    
    27    9   24 1    
    28   10   14 1    
    29   10   35 1    
    30   11   12 1    
    31   11   15 1    
    32   11   30 1    
    33   13   12 1    
    34   12   18 1    
    35   12   29 1    
    36   14   13 2    
    37   13   68 1    
    38   14   69 1    
    39   15   16 1    
    40   15   70 1    
    41   15   71 1    
    42   16   17 1    
    43   16   27 1    
    44   16   72 1    
    45   18   17 1    
    46   17   19 1    
    47   17   28 1    
    48   18   22 1    
    49   18   25 1    
    50   19   20 1    
    51   19   73 1    
    52   19   74 1    
    53   21   20 1    
    54   20   75 1    
    55   20   76 1    
    56   22   21 1    
    57   21   26 1    
    58   21   32 1    
    59   22   77 1    
    60   22   78 1    
    61   23   79 1    
    62   23   80 1    
    63   23   81 1    
    64   24   82 1    
    65   24   83 1    
    66   24   84 1    
    67   26   85 1    
    68   26   86 1    
    69   26   87 1    
    70   27   88 1    
    71   29   28 1    
    72   28   89 1    
    73   28   90 1    
    74   30   91 1    
    75   30   92 1    
    76   30   93 1    
    77   32   94 1    
    78   32   95 1    
    79   32   96 1    
    80   33   97 1    
    81   33   98 1    
    82   33   99 1    
    83   34   37 1    
    84   34  100 1    
    85   34  101 1    
    86   38   36 1    
    87   37  102 1    
    88   38   39 1    
    89   43   38 1    
    90   38  103 1    
    91   40   39 1    
    92   41   40 1    
    93   40   50 1    
    94   40  104 1    
    95   42   41 1    
    96   41   51 1    
    97   41  105 1    
    98   42   43 1    
    99   52   42 1    
   100   42  106 1    
   101   43   57 1    
   102   43  107 1    
   103   44   45 1    
   104   44   49 1    
   105   44   52 1    
   106   44  108 1    
   107   45   46 1    
   108   46   47 1    
   109   46   53 1    
   110   46  109 1    
   111   47   48 1    
   112   47   55 1    
   113   47  110 1    
   114   48   49 1    
   115   48   54 1    
   116   48  111 1    
   117   49   56 1    
   118   49  112 1    
   119   50  113 1    
   120   50  114 1    
   121   50  115 1    
   122   51  116 1    
   123   53   58 1    
   124   53  117 1    
   125   53  118 1    
   126   54  119 1    
   127   55  120 1    
   128   56  121 1    
   129   57  122 1    
   130   58  123 1    
@<TRIPOS>SUBSTRUCTURE
     1 ****       44 TEMP              0 ****  ****    0 ROOT 
@<TRIPOS>NORMAL
@<TRIPOS>FF_PBC
FORCE_FIELD_SETUP_FEATURE Force Field Setup information
v1.0  0 0.000000 0.000000 0.000000 0.000000 0.000000 0.000000 NONE 0 0 0 0 1 0 0 0 0 0 0 0 0
