@<TRIPOS>MOLECULE
MOL005899
   39    40     1     1     0
SMALL
GASTEIGER


@<TRIPOS>ATOM
      1 C          -0.120826    0.608163    0.488334 C.3       1 <1>        -0.011001 
      2 C           0.082254   -0.931879    0.778158 C.3       1 <1>        -0.013126 
      3 C           1.488167   -1.530415    0.620957 C.2       1 <1>        -0.072868 
      4 C           2.632231   -0.848252    0.785077 C.2       1 <1>        -0.084725 
      5 C           2.720459    0.587340    1.203292 C.3       1 <1>        -0.034005 
      6 C           2.258231    1.547114    0.076648 C.3       1 <1>        -0.043872 
      7 C           0.856579    1.253918   -0.569482 C.3       1 <1>        -0.027806 
      8 C          -0.995131   -1.745859   -0.006359 C.3       1 <1>        -0.042286 
      9 C          -2.434334   -1.322292    0.364257 C.3       1 <1>        -0.031439 
     10 C          -2.618545    0.161932    0.245757 C.2       1 <1>        -0.076213 
     11 C          -1.578493    1.002867    0.307015 C.2       1 <1>        -0.080862 
     12 C           1.595408   -3.005014    0.263426 C.3       1 <1>        -0.043506 
     13 C           0.339419    2.640455   -1.084172 C.3       1 <1>        -0.059250 
     14 C           0.992867    0.377389   -1.855704 C.3       1 <1>        -0.059250 
     15 C          -4.046880    0.635682    0.077784 C.3       1 <1>        -0.043778 
     16 H           0.069931    1.152312    1.426182 H         1 <1>         0.035396 
     17 H          -0.164558   -1.107768    1.839248 H         1 <1>         0.035144 
     18 H           3.593569   -1.338716    0.621586 H         1 <1>         0.057163 
     19 H           2.154291    0.710186    2.138360 H         1 <1>         0.030757 
     20 H           3.767071    0.830184    1.457652 H         1 <1>         0.030757 
     21 H           2.263170    2.543565    0.550247 H         1 <1>         0.027355 
     22 H           3.026271    1.565296   -0.713925 H         1 <1>         0.027355 
     23 H          -0.971659   -2.821808    0.223843 H         1 <1>         0.027417 
     24 H          -0.847959   -1.628586   -1.089051 H         1 <1>         0.027417 
     25 H          -3.142400   -1.847939   -0.298267 H         1 <1>         0.031008 
     26 H          -2.664808   -1.602431    1.405065 H         1 <1>         0.031008 
     27 H          -1.830871    2.060561    0.247346 H         1 <1>         0.057467 
     28 H           2.630411   -3.377841    0.239590 H         1 <1>         0.027445 
     29 H           1.067566   -3.609147    1.016329 H         1 <1>         0.027445 
     30 H           1.173397   -3.195484   -0.734394 H         1 <1>         0.027445 
     31 H          -0.573380    2.539948   -1.691558 H         1 <1>         0.023517 
     32 H           1.096982    3.122852   -1.722206 H         1 <1>         0.023517 
     33 H           0.131175    3.325607   -0.247568 H         1 <1>         0.023517 
     34 H           1.614791    0.885542   -2.608800 H         1 <1>         0.023517 
     35 H           0.002546    0.215773   -2.306172 H         1 <1>         0.023517 
     36 H           1.456345   -0.598899   -1.677191 H         1 <1>         0.023517 
     37 H          -4.449178    0.256212   -0.873468 H         1 <1>         0.027436 
     38 H          -4.659771    0.242153    0.902702 H         1 <1>         0.027436 
     39 H          -4.143518    1.731816    0.075138 H         1 <1>         0.027436 
@<TRIPOS>BOND
     1    1    2 1    
     2    1    7 1    
     3    1   11 1    
     4    1   16 1    
     5    2    3 1    
     6    2    8 1    
     7    2   17 1    
     8    3    4 2    
     9    3   12 1    
    10    4    5 1    
    11    4   18 1    
    12    5    6 1    
    13    5   19 1    
    14    5   20 1    
    15    6    7 1    
    16    6   21 1    
    17    6   22 1    
    18    7   13 1    
    19    7   14 1    
    20    8    9 1    
    21    8   23 1    
    22    8   24 1    
    23    9   10 1    
    24    9   25 1    
    25    9   26 1    
    26   10   11 2    
    27   10   15 1    
    28   11   27 1    
    29   12   28 1    
    30   12   29 1    
    31   12   30 1    
    32   13   31 1    
    33   13   32 1    
    34   13   33 1    
    35   14   34 1    
    36   14   35 1    
    37   14   36 1    
    38   15   37 1    
    39   15   38 1    
    40   15   39 1    
@<TRIPOS>SUBSTRUCTURE
     1 ****        1 TEMP              0 ****  ****    0 ROOT 
@<TRIPOS>NORMAL
@<TRIPOS>FF_PBC
FORCE_FIELD_SETUP_FEATURE Force Field Setup information
v1.0  0 0.000000 0.000000 0.000000 0.000000 0.000000 0.000000 NONE 0 0 0 0 1 0 0 0 0 0 0 0 0
