@<TRIPOS>MOLECULE
MOL002125
   29    29     1     1     0
SMALL
GASTEIGER


@<TRIPOS>ATOM
      1 C           0.105810    1.207435    0.224305 C.3       1 <1>         0.076642 
      2 C           1.513905    1.266079   -0.313795 C.2       1 <1>        -0.056646 
      3 C           2.246577    0.186115   -0.617349 C.2       1 <1>        -0.074111 
      4 C           1.715189   -1.213518   -0.435579 C.3       1 <1>        -0.031575 
      5 C           0.439207   -1.263250    0.444211 C.3       1 <1>        -0.043650 
      6 C          -0.572638   -0.178116   -0.017365 C.3       1 <1>        -0.008750 
      7 O           0.249494    1.534166    1.618489 O.3       1 <1>        -0.387477 
      8 C           3.651717    0.293582   -1.166658 C.3       1 <1>        -0.043707 
      9 C          -1.985753   -0.322881    0.650917 C.3       1 <1>        -0.041238 
     10 C          -2.933650    0.850590    0.258347 C.3       1 <1>        -0.062323 
     11 C          -2.691561   -1.659455    0.265718 C.3       1 <1>        -0.062323 
     12 H          -0.456273    1.997100   -0.302877 H         1 <1>         0.064039 
     13 H           1.942061    2.260636   -0.444802 H         1 <1>         0.059702 
     14 H           1.493289   -1.612173   -1.438856 H         1 <1>         0.031000 
     15 H           2.486483   -1.853107    0.024128 H         1 <1>         0.031000 
     16 H           0.699690   -1.084253    1.500298 H         1 <1>         0.027194 
     17 H           0.039624   -2.283635    0.360885 H         1 <1>         0.027194 
     18 H          -0.713372   -0.291650   -1.105797 H         1 <1>         0.033138 
     19 H          -0.572525    1.645020    2.081421 H         1 <1>         0.210219 
     20 H           4.359549   -0.162645   -0.458464 H         1 <1>         0.027437 
     21 H           3.712640   -0.244863   -2.124377 H         1 <1>         0.027437 
     22 H           3.962045    1.335247   -1.339233 H         1 <1>         0.027437 
     23 H          -1.873297   -0.325244    1.748072 H         1 <1>         0.029904 
     24 H          -3.943487    0.693916    0.668186 H         1 <1>         0.023243 
     25 H          -2.584774    1.816149    0.650216 H         1 <1>         0.023243 
     26 H          -3.013460    0.921673   -0.837300 H         1 <1>         0.023243 
     27 H          -2.185472   -2.537921    0.688859 H         1 <1>         0.023243 
     28 H          -3.722280   -1.682369    0.652353 H         1 <1>         0.023243 
     29 H          -2.734616   -1.768460   -0.828712 H         1 <1>         0.023243 
@<TRIPOS>BOND
     1    1    2 1    
     2    1    6 1    
     3    1    7 1    
     4    1   12 1    
     5    2    3 2    
     6    2   13 1    
     7    3    4 1    
     8    3    8 1    
     9    4    5 1    
    10    4   14 1    
    11    4   15 1    
    12    5    6 1    
    13    5   16 1    
    14    5   17 1    
    15    6    9 1    
    16    6   18 1    
    17    7   19 1    
    18    8   20 1    
    19    8   21 1    
    20    8   22 1    
    21    9   10 1    
    22    9   11 1    
    23    9   23 1    
    24   10   24 1    
    25   10   25 1    
    26   10   26 1    
    27   11   27 1    
    28   11   28 1    
    29   11   29 1    
@<TRIPOS>SUBSTRUCTURE
     1 ****        1 TEMP              0 ****  ****    0 ROOT 
@<TRIPOS>NORMAL
@<TRIPOS>FF_PBC
FORCE_FIELD_SETUP_FEATURE Force Field Setup information
v1.0  0 0.000000 0.000000 0.000000 0.000000 0.000000 0.000000 NONE 0 0 0 0 1 0 0 0 0 0 0 0 0
