@<TRIPOS>MOLECULE
MOL002773
   96    97     1     1     0
SMALL
GASTEIGER


@<TRIPOS>ATOM
      1 C         -12.704271   -0.702151   -0.469064 C.3       1 <1>        -0.009891 
      2 C          12.691815    0.430438    0.558698 C.3       1 <1>        -0.009891 
      3 C         -14.069633    0.047616   -0.443086 C.3       1 <1>        -0.043582 
      4 C          13.633205   -0.603290    1.245313 C.3       1 <1>        -0.043582 
      5 C         -13.898920    1.549566   -0.763020 C.3       1 <1>        -0.048572 
      6 C          14.050320   -1.719002    0.261100 C.3       1 <1>        -0.048572 
      7 C         -11.622168    0.082962    0.256725 C.2       1 <1>        -0.042725 
      8 C          11.564923   -0.272101   -0.180095 C.2       1 <1>        -0.042725 
      9 C         -13.001847    2.180689    0.326408 C.3       1 <1>        -0.031412 
     10 C          12.778720   -2.470966   -0.198963 C.3       1 <1>        -0.031412 
     11 C         -11.757204    1.373044    0.618533 C.2       1 <1>        -0.068933 
     12 C          11.610805   -1.569288   -0.538074 C.2       1 <1>        -0.068933 
     13 C         -12.206790   -0.920851   -1.930196 C.3       1 <1>        -0.055792 
     14 C         -12.916906   -2.098818    0.189178 C.3       1 <1>        -0.055792 
     15 C          13.463381    1.316085   -0.464929 C.3       1 <1>        -0.055792 
     16 C          12.112381    1.355775    1.672015 C.3       1 <1>        -0.055792 
     17 C         -10.365315   -0.634971    0.549342 C.2       1 <1>        -0.057858 
     18 C          10.376876    0.544596   -0.491175 C.2       1 <1>        -0.057858 
     19 C         -10.677664    2.136897    1.360789 C.3       1 <1>        -0.043221 
     20 C          10.490447   -2.256025   -1.297518 C.3       1 <1>        -0.043221 
     21 C          -9.231345   -0.354073   -0.104921 C.2       1 <1>        -0.058564 
     22 C           9.208081    0.343599    0.130238 C.2       1 <1>        -0.058564 
     23 C          -7.941925   -1.044994    0.122969 C.2       1 <1>        -0.050437 
     24 C           7.981387    1.135580   -0.113687 C.2       1 <1>        -0.050437 
     25 C          -7.923578   -2.529385    0.416026 C.3       1 <1>        -0.039709 
     26 C           8.089518    2.616282   -0.404582 C.3       1 <1>        -0.039709 
     27 C          -6.805940   -0.331949    0.057530 C.2       1 <1>        -0.058829 
     28 C           6.793875    0.510237   -0.064495 C.2       1 <1>        -0.058829 
     29 C          -5.438714   -0.864944    0.258152 C.2       1 <1>        -0.061262 
     30 C           5.464117    1.129573   -0.275741 C.2       1 <1>        -0.061262 
     31 C          -4.350735   -0.081209    0.293854 C.2       1 <1>        -0.058829 
     32 C           4.329242    0.416570   -0.301978 C.2       1 <1>        -0.058829 
     33 C          -2.963088   -0.559065    0.509177 C.2       1 <1>        -0.050445 
     34 C           2.963910    0.962802   -0.512857 C.2       1 <1>        -0.050445 
     35 C          -2.716459   -1.815733    1.314104 C.3       1 <1>        -0.039709 
     36 C           2.768902    2.261617   -1.264485 C.3       1 <1>        -0.039709 
     37 C          -1.942645    0.146303   -0.006138 C.2       1 <1>        -0.058837 
     38 C           1.912373    0.273802   -0.037350 C.2       1 <1>        -0.058837 
     39 C          -0.509824   -0.213787    0.081713 C.2       1 <1>        -0.061502 
     40 C           0.485058    0.659429   -0.131423 C.2       1 <1>        -0.061502 
     41 H         -14.773310   -0.407965   -1.159035 H         1 <1>         0.027367 
     42 H         -14.516232   -0.030581    0.562099 H         1 <1>         0.027367 
     43 H          14.528752   -0.101760    1.647215 H         1 <1>         0.027367 
     44 H          13.108617   -1.079994    2.090272 H         1 <1>         0.027367 
     45 H         -14.881037    2.052640   -0.769678 H         1 <1>         0.026856 
     46 H         -13.446690    1.689296   -1.756287 H         1 <1>         0.026856 
     47 H          14.741280   -2.423450    0.755892 H         1 <1>         0.026856 
     48 H          14.579114   -1.295719   -0.605609 H         1 <1>         0.026856 
     49 H         -12.730395    3.199966    0.004875 H         1 <1>         0.031008 
     50 H         -13.566816    2.258898    1.269106 H         1 <1>         0.031008 
     51 H          13.047269   -3.104004   -1.060156 H         1 <1>         0.031008 
     52 H          12.438857   -3.133155    0.613808 H         1 <1>         0.031008 
     53 H         -12.974266   -1.433018   -2.530361 H         1 <1>         0.023812 
     54 H         -11.298816   -1.543039   -1.941492 H         1 <1>         0.023812 
     55 H         -11.954853    0.028276   -2.423024 H         1 <1>         0.023812 
     56 H         -12.029093   -2.741630    0.092511 H         1 <1>         0.023812 
     57 H         -13.760472   -2.621242   -0.288145 H         1 <1>         0.023812 
     58 H         -13.141236   -1.983259    1.260407 H         1 <1>         0.023812 
     59 H          12.829042    2.141290   -0.821412 H         1 <1>         0.023812 
     60 H          13.774796    0.742286   -1.349025 H         1 <1>         0.023812 
     61 H          14.357199    1.756552    0.002080 H         1 <1>         0.023812 
     62 H          12.928460    1.819575    2.247094 H         1 <1>         0.023812 
     63 H          11.482756    0.775762    2.364259 H         1 <1>         0.023812 
     64 H          11.496926    2.165352    1.251582 H         1 <1>         0.023812 
     65 H         -10.388744   -1.399924    1.324132 H         1 <1>         0.062053 
     66 H          10.487248    1.321213   -1.245110 H         1 <1>         0.062053 
     67 H         -11.131634    2.692010    2.195101 H         1 <1>         0.027453 
     68 H         -10.211652    2.859448    0.674513 H         1 <1>         0.027453 
     69 H          -9.885927    1.506355    1.787336 H         1 <1>         0.027453 
     70 H          10.027213   -3.007217   -0.641475 H         1 <1>         0.027453 
     71 H          10.898274   -2.770375   -2.179989 H         1 <1>         0.027453 
     72 H           9.701232   -1.583674   -1.659095 H         1 <1>         0.027453 
     73 H          -9.258851    0.440332   -0.852785 H         1 <1>         0.062029 
     74 H           9.157575   -0.461283    0.865086 H         1 <1>         0.062029 
     75 H          -7.271033   -3.055922   -0.295724 H         1 <1>         0.027753 
     76 H          -8.922395   -2.976441    0.316148 H         1 <1>         0.027753 
     77 H          -7.562445   -2.705845    1.440831 H         1 <1>         0.027753 
     78 H           9.110586    2.992730   -0.245459 H         1 <1>         0.027753 
     79 H           7.435021    3.194142    0.263848 H         1 <1>         0.027753 
     80 H           7.804769    2.806493   -1.450850 H         1 <1>         0.027753 
     81 H          -6.891462    0.735295   -0.153972 H         1 <1>         0.062020 
     82 H           6.802345   -0.560797    0.143556 H         1 <1>         0.062020 
     83 H          -5.307624   -1.938135    0.376808 H         1 <1>         0.061775 
     84 H           5.402463    2.206845   -0.408323 H         1 <1>         0.061775 
     85 H          -4.492931    0.990189    0.150671 H         1 <1>         0.062020 
     86 H           4.414227   -0.660887   -0.151585 H         1 <1>         0.062020 
     87 H          -3.572010   -2.052544    1.963529 H         1 <1>         0.027753 
     88 H          -2.542941   -2.659657    0.630263 H         1 <1>         0.027753 
     89 H          -1.847744   -1.704222    1.980163 H         1 <1>         0.027753 
     90 H           2.620666    3.083922   -0.548124 H         1 <1>         0.027753 
     91 H           1.901409    2.207369   -1.938685 H         1 <1>         0.027753 
     92 H           3.635851    2.493594   -1.899668 H         1 <1>         0.027753 
     93 H          -2.168210    1.065015   -0.547930 H         1 <1>         0.062020 
     94 H           2.108450   -0.666983    0.478528 H         1 <1>         0.062020 
     95 H          -0.239718   -1.241346    0.321396 H         1 <1>         0.061766 
     96 H           0.222979    1.688375   -0.374499 H         1 <1>         0.061766 
@<TRIPOS>BOND
     1    1    3 1    
     2    7    1 1    
     3    1   13 1    
     4    1   14 1    
     5    2    4 1    
     6    8    2 1    
     7    2   15 1    
     8    2   16 1    
     9    3    5 1    
    10    3   41 1    
    11    3   42 1    
    12    4    6 1    
    13    4   43 1    
    14    4   44 1    
    15    9    5 1    
    16    5   45 1    
    17    5   46 1    
    18   10    6 1    
    19    6   47 1    
    20    6   48 1    
    21    7   11 2    
    22   17    7 1    
    23    8   12 2    
    24   18    8 1    
    25   11    9 1    
    26    9   49 1    
    27    9   50 1    
    28   12   10 1    
    29   10   51 1    
    30   10   52 1    
    31   11   19 1    
    32   12   20 1    
    33   13   53 1    
    34   13   54 1    
    35   13   55 1    
    36   14   56 1    
    37   14   57 1    
    38   14   58 1    
    39   15   59 1    
    40   15   60 1    
    41   15   61 1    
    42   16   62 1    
    43   16   63 1    
    44   16   64 1    
    45   21   17 2    
    46   17   65 1    
    47   22   18 2    
    48   18   66 1    
    49   19   67 1    
    50   19   68 1    
    51   19   69 1    
    52   20   70 1    
    53   20   71 1    
    54   20   72 1    
    55   23   21 1    
    56   21   73 1    
    57   24   22 1    
    58   22   74 1    
    59   23   25 1    
    60   27   23 2    
    61   24   26 1    
    62   28   24 2    
    63   25   75 1    
    64   25   76 1    
    65   25   77 1    
    66   26   78 1    
    67   26   79 1    
    68   26   80 1    
    69   29   27 1    
    70   27   81 1    
    71   30   28 1    
    72   28   82 1    
    73   31   29 2    
    74   29   83 1    
    75   32   30 2    
    76   30   84 1    
    77   33   31 1    
    78   31   85 1    
    79   34   32 1    
    80   32   86 1    
    81   33   35 1    
    82   37   33 2    
    83   34   36 1    
    84   38   34 2    
    85   35   87 1    
    86   35   88 1    
    87   35   89 1    
    88   36   90 1    
    89   36   91 1    
    90   36   92 1    
    91   39   37 1    
    92   37   93 1    
    93   40   38 1    
    94   38   94 1    
    95   39   40 2    
    96   39   95 1    
    97   40   96 1    
@<TRIPOS>SUBSTRUCTURE
     1 ****        1 TEMP              0 ****  ****    0 ROOT 
@<TRIPOS>NORMAL
@<TRIPOS>FF_PBC
FORCE_FIELD_SETUP_FEATURE Force Field Setup information
v1.0  0 0.000000 0.000000 0.000000 0.000000 0.000000 0.000000 NONE 0 0 0 0 1 0 0 0 0 0 0 0 0
