@<TRIPOS>MOLECULE
MOL005824
   20    20     1     1     0
SMALL
GASTEIGER


@<TRIPOS>ATOM
      1 C           0.865878    0.675393   -0.178643 C.ar      1 <1>         0.017151 
      2 C           1.804579    1.825358   -0.483638 C.2       1 <1>         0.160113 
      3 C           1.435079   -0.649166    0.175134 C.ar      1 <1>        -0.050537 
      4 C          -0.539965    0.823209   -0.220137 C.ar      1 <1>        -0.050537 
      5 C           1.301749    3.197461   -0.850003 C.3       1 <1>        -0.001410 
      6 O           3.009742    1.638088   -0.431916 O.2       1 <1>        -0.292356 
      7 C           0.595090   -1.736908    0.463688 C.ar      1 <1>        -0.048220 
      8 C          -1.425338   -0.326130    0.084757 C.ar      1 <1>        -0.048220 
      9 C          -0.879202   -1.579570    0.419541 C.ar      1 <1>         0.046318 
     10 C          -1.780723   -2.754828    0.731306 C.2       1 <1>         0.291236 
     11 O          -3.107299   -2.603252    0.688902 O.3       1 <1>        -0.327490 
     12 O          -1.287459   -3.834551    1.019736 O.2       1 <1>        -0.259430 
     13 H           2.511675   -0.782109    0.212181 H         1 <1>         0.062470 
     14 H          -0.993260    1.774293   -0.474222 H         1 <1>         0.062470 
     15 H           2.143387    3.883461   -1.031574 H         1 <1>         0.030932 
     16 H           0.692582    3.604192   -0.029381 H         1 <1>         0.030932 
     17 H           0.695122    3.141470   -1.765865 H         1 <1>         0.030932 
     18 H           1.029285   -2.697967    0.720410 H         1 <1>         0.062546 
     19 H          -2.501509   -0.191856    0.047362 H         1 <1>         0.062546 
     20 H          -3.569611   -3.406687    0.902262 H         1 <1>         0.220555 
@<TRIPOS>BOND
     1    1    2 1    
     2    1    3 1    
     3    1    4 2    
     4    2    5 1    
     5    2    6 2    
     6    3    7 2    
     7    3   13 1    
     8    4    8 1    
     9    4   14 1    
    10    5   15 1    
    11    5   16 1    
    12    5   17 1    
    13    7    9 1    
    14    7   18 1    
    15    8    9 2    
    16    8   19 1    
    17    9   10 1    
    18   10   11 1    
    19   10   12 2    
    20   11   20 1    
@<TRIPOS>SUBSTRUCTURE
     1 ****        1 TEMP              0 ****  ****    0 ROOT 
@<TRIPOS>NORMAL
@<TRIPOS>FF_PBC
FORCE_FIELD_SETUP_FEATURE Force Field Setup information
v1.0  0 0.000000 0.000000 0.000000 0.000000 0.000000 0.000000 NONE 0 0 0 0 1 0 0 0 0 0 0 0 0
