@<TRIPOS>MOLECULE
MOL005015
   66    68     1     1     0
SMALL
GASTEIGER


@<TRIPOS>ATOM
      1 C          -4.243361    2.464917    0.234787 C.ar      1 <1>         0.084183 
      2 C          -4.207881    1.159710   -0.112098 C.ar      1 <1>         0.016636 
      3 C          -2.905705    0.444592   -0.264831 C.ar      1 <1>         0.087350 
      4 C          -1.743931    1.103353   -0.004768 C.ar      1 <1>         0.013587 
      5 C          -1.797658    2.549037    0.353902 C.ar      1 <1>         0.084291 
      6 C          -2.966371    3.180348    0.462751 C.ar      1 <1>        -0.000951 
      7 C          -0.370864    0.421349   -0.067266 C.3       1 <1>        -0.013741 
      8 C           0.818400    1.413845    0.065797 C.3       1 <1>         0.014624 
      9 C           0.494669    2.556165    1.057408 C.3       1 <1>         0.061401 
     10 O          -0.632151    3.285289    0.572982 O.3       1 <1>        -0.343648 
     11 C           2.096799    0.670997    0.501515 C.ar      1 <1>        -0.011643 
     12 C           3.262642    0.579746   -0.410678 C.ar      1 <1>         0.081990 
     13 C           4.432346   -0.113006   -0.031999 C.ar      1 <1>         0.015986 
     14 C           4.481569   -0.791815    1.293881 C.ar      1 <1>         0.078500 
     15 C           3.391246   -0.680239    2.168395 C.ar      1 <1>        -0.031234 
     16 C           2.178226    0.069943    1.767135 C.ar      1 <1>        -0.053335 
     17 O           3.195570    1.194483   -1.661114 O.3       1 <1>        -0.359186 
     18 C           5.616104   -0.137015   -1.013819 C.3       1 <1>        -0.004353 
     19 O           5.607749   -1.538672    1.652043 O.3       1 <1>        -0.359468 
     20 C           6.953975   -0.437930   -0.384968 C.2       1 <1>        -0.080815 
     21 C           7.907133   -1.207221   -0.940138 C.2       1 <1>        -0.079306 
     22 C           9.154666   -1.554129   -0.161149 C.3       1 <1>        -0.044040 
     23 C           7.828234   -1.787094   -2.339749 C.3       1 <1>        -0.044040 
     24 O          -5.477359    3.114249    0.377316 O.3       1 <1>        -0.347465 
     25 C          -5.527006    0.399324   -0.350633 C.3       1 <1>        -0.004335 
     26 C          -5.591758    4.536217    0.232834 C.3       1 <1>         0.043040 
     27 C          -5.549092   -0.945901    0.332555 C.2       1 <1>        -0.080815 
     28 C          -6.418871   -1.929127    0.047557 C.2       1 <1>        -0.079306 
     29 C          -7.576461   -1.789500   -0.923033 C.3       1 <1>        -0.044040 
     30 C          -6.282444   -3.285474    0.703808 C.3       1 <1>        -0.044040 
     31 O          -2.928750   -0.896324   -0.688578 O.3       1 <1>        -0.347194 
     32 C          -2.322546   -1.978229    0.050565 C.3       1 <1>         0.043052 
     33 H          -2.949383    4.227177    0.723778 H         1 <1>         0.066936 
     34 H          -0.344789   -0.268536    0.786049 H         1 <1>         0.032136 
     35 H          -0.265168   -0.151235   -1.000540 H         1 <1>         0.032136 
     36 H           0.964699    1.897672   -0.914106 H         1 <1>         0.037527 
     37 H           1.340846    3.261598    1.118578 H         1 <1>         0.057101 
     38 H           0.260208    2.194919    2.070246 H         1 <1>         0.057101 
     39 H           3.411116   -1.148394    3.146306 H         1 <1>         0.064339 
     40 H           1.360277    0.128967    2.472930 H         1 <1>         0.062197 
     41 H           3.227957    0.554050   -2.362870 H         1 <1>         0.217338 
     42 H           5.342448   -0.890288   -1.766384 H         1 <1>         0.035721 
     43 H           5.706857    0.845934   -1.501943 H         1 <1>         0.035721 
     44 H           5.535723   -1.995022    2.482050 H         1 <1>         0.217326 
     45 H           7.134101    0.006285    0.595905 H         1 <1>         0.057473 
     46 H           9.114315   -1.202536    0.881994 H         1 <1>         0.027427 
     47 H           9.255982   -2.651021   -0.139944 H         1 <1>         0.027427 
     48 H          10.045313   -1.115166   -0.641575 H         1 <1>         0.027427 
     49 H           8.838032   -1.906561   -2.764184 H         1 <1>         0.027427 
     50 H           7.344629   -2.775909   -2.303825 H         1 <1>         0.027427 
     51 H           7.272773   -1.134463   -3.030309 H         1 <1>         0.027427 
     52 H          -6.400982    0.956676    0.018741 H         1 <1>         0.035721 
     53 H          -5.619869    0.274172   -1.442008 H         1 <1>         0.035721 
     54 H          -6.665354    4.773044    0.256365 H         1 <1>         0.052870 
     55 H          -5.105256    5.089460    1.050304 H         1 <1>         0.052870 
     56 H          -5.179325    4.859685   -0.735020 H         1 <1>         0.052870 
     57 H          -4.799218   -1.109093    1.104947 H         1 <1>         0.057473 
     58 H          -7.731824   -0.771425   -1.304772 H         1 <1>         0.027427 
     59 H          -7.421349   -2.453694   -1.785107 H         1 <1>         0.027427 
     60 H          -8.505115   -2.092885   -0.418595 H         1 <1>         0.027427 
     61 H          -7.131942   -3.477452    1.377559 H         1 <1>         0.027427 
     62 H          -5.354014   -3.382069    1.287922 H         1 <1>         0.027427 
     63 H          -6.265176   -4.056815   -0.084790 H         1 <1>         0.027427 
     64 H          -2.918989   -2.883356   -0.148792 H         1 <1>         0.052870 
     65 H          -1.296761   -2.194641   -0.286805 H         1 <1>         0.052870 
     66 H          -2.339139   -1.803920    1.137679 H         1 <1>         0.052870 
@<TRIPOS>BOND
     1    1    2 2    
     2    1    6 1    
     3    1   24 1    
     4    2    3 1    
     5    2   25 1    
     6    3    4 2    
     7    3   31 1    
     8    4    5 1    
     9    4    7 1    
    10    5    6 2    
    11    5   10 1    
    12    6   33 1    
    13    7    8 1    
    14    7   34 1    
    15    7   35 1    
    16    8    9 1    
    17    8   11 1    
    18    8   36 1    
    19    9   10 1    
    20    9   37 1    
    21    9   38 1    
    22   11   12 1    
    23   11   16 2    
    24   12   13 2    
    25   12   17 1    
    26   13   14 1    
    27   13   18 1    
    28   14   15 2    
    29   14   19 1    
    30   15   16 1    
    31   15   39 1    
    32   16   40 1    
    33   17   41 1    
    34   18   20 1    
    35   18   42 1    
    36   18   43 1    
    37   19   44 1    
    38   20   21 2    
    39   20   45 1    
    40   21   22 1    
    41   21   23 1    
    42   22   46 1    
    43   22   47 1    
    44   22   48 1    
    45   23   49 1    
    46   23   50 1    
    47   23   51 1    
    48   24   26 1    
    49   25   27 1    
    50   25   52 1    
    51   25   53 1    
    52   26   54 1    
    53   26   55 1    
    54   26   56 1    
    55   27   28 2    
    56   27   57 1    
    57   28   29 1    
    58   28   30 1    
    59   29   58 1    
    60   29   59 1    
    61   29   60 1    
    62   30   61 1    
    63   30   62 1    
    64   30   63 1    
    65   31   32 1    
    66   32   64 1    
    67   32   65 1    
    68   32   66 1    
@<TRIPOS>SUBSTRUCTURE
     1 ****        1 TEMP              0 ****  ****    0 ROOT 
@<TRIPOS>NORMAL
@<TRIPOS>FF_PBC
FORCE_FIELD_SETUP_FEATURE Force Field Setup information
v1.0  0 0.000000 0.000000 0.000000 0.000000 0.000000 0.000000 NONE 0 0 0 0 1 0 0 0 0 0 0 0 0
