@<TRIPOS>MOLECULE
MOL001772
   36    36     1     1     0
SMALL
GASTEIGER


@<TRIPOS>ATOM
      1 O          -1.115668    2.982247   -1.988992 O.2       1 <1>        -0.297693 
      2 C          -1.159891   -0.320855    0.562628 C.3       1 <1>        -0.013621 
      3 C          -1.530581   -1.823135    0.323391 C.3       1 <1>        -0.043877 
      4 C           0.349053   -0.046680    0.398073 C.2       1 <1>        -0.064515 
      5 C          -0.467745   -2.775597    0.891766 C.3       1 <1>        -0.048591 
      6 C           0.821126   -2.502823    0.092953 C.3       1 <1>        -0.031707 
      7 C           1.228971   -1.045620    0.148658 C.2       1 <1>        -0.072850 
      8 C          -2.094669    0.444088   -0.427281 C.3       1 <1>        -0.056087 
      9 C          -1.554451    0.080318    2.015359 C.3       1 <1>        -0.056087 
     10 C           0.858372    1.392299    0.598402 C.3       1 <1>        -0.024324 
     11 C           2.715502   -0.830737   -0.084192 C.3       1 <1>        -0.043516 
     12 C           0.201908    2.657464   -0.033856 C.3       1 <1>         0.009242 
     13 C          -0.082297    2.544252   -1.513374 C.2       1 <1>         0.130621 
     14 C           0.940287    1.876018   -2.396578 C.3       1 <1>        -0.006054 
     15 H          -1.604494   -2.035605   -0.755871 H         1 <1>         0.027358 
     16 H          -2.509324   -2.072752    0.761765 H         1 <1>         0.027358 
     17 H          -0.777822   -3.827564    0.761058 H         1 <1>         0.026856 
     18 H          -0.313878   -2.596794    1.967658 H         1 <1>         0.026856 
     19 H           1.590311   -3.150547    0.546648 H         1 <1>         0.030998 
     20 H           0.709071   -2.794666   -0.963949 H         1 <1>         0.030998 
     21 H          -0.918192   -0.424063    2.757168 H         1 <1>         0.023803 
     22 H          -1.451175    1.163921    2.167474 H         1 <1>         0.023803 
     23 H          -2.603575   -0.176262    2.225376 H         1 <1>         0.023803 
     24 H          -2.217794    1.501494   -0.189023 H         1 <1>         0.023803 
     25 H          -1.712750    0.349919   -1.454476 H         1 <1>         0.023803 
     26 H          -3.114695    0.030184   -0.401581 H         1 <1>         0.023803 
     27 H           1.898299    1.494760    0.269560 H         1 <1>         0.031426 
     28 H           0.896643    1.552736    1.686431 H         1 <1>         0.031426 
     29 H           3.254528   -1.766163   -0.294942 H         1 <1>         0.027444 
     30 H           3.181085   -0.397130    0.812311 H         1 <1>         0.027444 
     31 H           2.887344   -0.178402   -0.952127 H         1 <1>         0.027444 
     32 H          -0.702595    2.938198    0.522422 H         1 <1>         0.034451 
     33 H           0.871382    3.526674    0.085179 H         1 <1>         0.034451 
     34 H           0.725236    2.094250   -3.454219 H         1 <1>         0.030578 
     35 H           1.952139    2.241279   -2.168309 H         1 <1>         0.030578 
     36 H           0.902140    0.786510   -2.250873 H         1 <1>         0.030578 
@<TRIPOS>BOND
     1   13    1 2    
     2    2    3 1    
     3    4    2 1    
     4    2    8 1    
     5    2    9 1    
     6    3    5 1    
     7    3   15 1    
     8    3   16 1    
     9    4    7 2    
    10   10    4 1    
    11    6    5 1    
    12    5   17 1    
    13    5   18 1    
    14    7    6 1    
    15    6   19 1    
    16    6   20 1    
    17    7   11 1    
    18    8   24 1    
    19    8   25 1    
    20    8   26 1    
    21    9   21 1    
    22    9   22 1    
    23    9   23 1    
    24   12   10 1    
    25   10   27 1    
    26   10   28 1    
    27   11   29 1    
    28   11   30 1    
    29   11   31 1    
    30   12   13 1    
    31   12   32 1    
    32   12   33 1    
    33   13   14 1    
    34   14   34 1    
    35   14   35 1    
    36   14   36 1    
@<TRIPOS>SUBSTRUCTURE
     1 ****        2 TEMP              0 ****  ****    0 ROOT 
@<TRIPOS>NORMAL
@<TRIPOS>FF_PBC
FORCE_FIELD_SETUP_FEATURE Force Field Setup information
v1.0  0 0.000000 0.000000 0.000000 0.000000 0.000000 0.000000 NONE 0 0 0 0 1 0 0 0 0 0 0 0 0
