@<TRIPOS>MOLECULE
MOL004837
   29    30     1     1     0
SMALL
GASTEIGER


@<TRIPOS>ATOM
      1 C          -4.367934   -0.621210   -0.412895 C.ar      1 <1>        -0.061097 
      2 C          -4.298009   -2.061780   -0.072143 C.ar      1 <1>        -0.061720 
      3 C          -3.143729   -2.577025    0.523439 C.ar      1 <1>        -0.061097 
      4 C          -1.998292   -1.684302    0.817006 C.ar      1 <1>        -0.051254 
      5 C          -2.049491   -0.322244    0.489372 C.ar      1 <1>         0.017834 
      6 C          -3.279987    0.218553   -0.143622 C.ar      1 <1>        -0.051254 
      7 C          -0.853605    0.557166    0.788961 C.2       1 <1>         0.170586 
      8 C          -0.570316    1.809836    0.001838 C.3       1 <1>         0.073543 
      9 C           0.872504    2.234017    0.140790 C.2       1 <1>         0.170586 
     10 C           2.033240    1.278180   -0.051963 C.ar      1 <1>         0.017834 
     11 O          -0.094608    0.239300    1.690451 O.2       1 <1>        -0.291599 
     12 O           1.111574    3.399985    0.416075 O.2       1 <1>        -0.291599 
     13 C           3.389742    1.691456    0.391691 C.ar      1 <1>        -0.051254 
     14 C           4.482778    0.829827    0.251626 C.ar      1 <1>        -0.061097 
     15 C           4.298550   -0.513289   -0.347602 C.ar      1 <1>        -0.061720 
     16 C           3.028931   -0.904336   -0.780946 C.ar      1 <1>        -0.061097 
     17 C           1.870896    0.011208   -0.635819 C.ar      1 <1>        -0.051254 
     18 H          -5.267872   -0.222493   -0.869531 H         1 <1>         0.061777 
     19 H          -5.140392   -2.712929   -0.282801 H         1 <1>         0.061759 
     20 H          -3.085054   -3.633205    0.772220 H         1 <1>         0.061777 
     21 H          -1.114475   -2.100485    1.287784 H         1 <1>         0.062450 
     22 H          -3.353071    1.269603   -0.396526 H         1 <1>         0.062450 
     23 H          -1.229730    2.606599    0.378428 H         1 <1>         0.042616 
     24 H          -0.784610    1.649458   -1.065108 H         1 <1>         0.042616 
     25 H           3.540967    2.670737    0.830762 H         1 <1>         0.062450 
     26 H           5.469063    1.143883    0.581355 H         1 <1>         0.061777 
     27 H           5.146288   -1.185286   -0.446342 H         1 <1>         0.061759 
     28 H           2.891357   -1.884520   -1.223533 H         1 <1>         0.061777 
     29 H           0.899138   -0.315760   -0.988341 H         1 <1>         0.062450 
@<TRIPOS>BOND
     1    1    2 1    
     2    1    6 2    
     3    1   18 1    
     4    2    3 2    
     5    2   19 1    
     6    3    4 1    
     7    3   20 1    
     8    4    5 2    
     9    4   21 1    
    10    5    6 1    
    11    5    7 1    
    12    6   22 1    
    13    7    8 1    
    14    7   11 2    
    15    8    9 1    
    16    8   23 1    
    17    8   24 1    
    18    9   10 1    
    19    9   12 2    
    20   10   13 1    
    21   10   17 2    
    22   13   14 2    
    23   13   25 1    
    24   14   15 1    
    25   14   26 1    
    26   15   16 2    
    27   15   27 1    
    28   16   17 1    
    29   16   28 1    
    30   17   29 1    
@<TRIPOS>SUBSTRUCTURE
     1 ****        1 TEMP              0 ****  ****    0 ROOT 
@<TRIPOS>NORMAL
@<TRIPOS>FF_PBC
FORCE_FIELD_SETUP_FEATURE Force Field Setup information
v1.0  0 0.000000 0.000000 0.000000 0.000000 0.000000 0.000000 NONE 0 0 0 0 1 0 0 0 0 0 0 0 0
