@<TRIPOS>MOLECULE
MOL004873
   56    58     1     1     0
SMALL
GASTEIGER


@<TRIPOS>ATOM
      1 C          18.125249   -8.315072   -0.718072 C.3       1 <1>        -0.023005 
      2 C          18.173675   -6.838016   -0.353988 C.ar      1 <1>        -0.036670 
      3 C          16.942845   -6.138894    0.050549 C.ar      1 <1>        -0.009371 
      4 C          15.690606   -6.936209    0.063222 C.ar      1 <1>         0.016064 
      5 C          12.966894   -7.045633    0.093216 C.ar      1 <1>         0.016601 
      6 C          13.100993   -8.572584    0.207976 C.ar      1 <1>         0.082232 
      7 C          14.435181   -9.250590    0.152067 C.ar      1 <1>        -0.009743 
      8 C          15.742635   -8.416962    0.157928 C.ar      1 <1>        -0.030960 
      9 O          11.947795   -9.331230    0.387835 O.3       1 <1>        -0.359178 
     10 C          11.648833   -6.252953    0.128612 C.3       1 <1>        -0.004333 
     11 C          10.393518   -6.849757    0.709741 C.2       1 <1>        -0.080815 
     12 C           9.169692   -6.322261    0.525697 C.2       1 <1>        -0.079306 
     13 C           8.910456   -5.039523   -0.242062 C.3       1 <1>        -0.044040 
     14 C           7.948764   -7.017938    1.091400 C.3       1 <1>        -0.044040 
     15 C          17.149066   -9.039259    0.241863 C.3       1 <1>        -0.022669 
     16 C          14.176236   -6.207104   -0.054528 C.ar      1 <1>         0.086449 
     17 O          14.053841   -4.836873   -0.278375 O.3       1 <1>        -0.358852 
     18 C          17.050822   -4.649278    0.446882 C.ar      1 <1>        -0.021340 
     19 C          18.314187   -3.863279    0.423143 C.ar      1 <1>         0.102783 
     20 C          19.612902   -4.431000    0.035091 C.ar      1 <1>         0.102480 
     21 C          19.720014   -5.854190   -0.372206 C.ar      1 <1>        -0.025639 
     22 O          18.245333   -2.515615    0.795677 O.3       1 <1>        -0.357261 
     23 O          20.742516   -3.607503    0.059415 O.3       1 <1>        -0.357268 
     24 C          14.568990  -10.790465    0.094067 C.3       1 <1>        -0.006522 
     25 C          13.422050  -11.688502   -0.320961 C.2       1 <1>        -0.080890 
     26 C          13.346824  -13.007331   -0.068643 C.2       1 <1>        -0.079307 
     27 C          12.110278  -13.788992   -0.470935 C.3       1 <1>        -0.044040 
     28 C          14.431710  -13.819921    0.617192 C.3       1 <1>        -0.044040 
     29 H          17.774260   -8.408032   -1.758125 H         1 <1>         0.031651 
     30 H          19.143970   -8.729402   -0.637271 H         1 <1>         0.031651 
     31 H          12.028956   -9.889246    1.153140 H         1 <1>         0.217338 
     32 H          11.832733   -5.349501    0.731112 H         1 <1>         0.035721 
     33 H          11.470628   -5.959790   -0.915576 H         1 <1>         0.035721 
     34 H          10.470354   -7.747038    1.315688 H         1 <1>         0.057473 
     35 H           9.802608   -4.405510   -0.348266 H         1 <1>         0.027427 
     36 H           8.537410   -5.296657   -1.245343 H         1 <1>         0.027427 
     37 H           8.155655   -4.423547    0.274221 H         1 <1>         0.027427 
     38 H           7.117055   -6.316054    1.263027 H         1 <1>         0.027427 
     39 H           7.616998   -7.787124    0.375996 H         1 <1>         0.027427 
     40 H           8.177148   -7.507722    2.051295 H         1 <1>         0.027427 
     41 H          17.489893   -8.929226    1.284967 H         1 <1>         0.031660 
     42 H          17.188355  -10.101185   -0.027882 H         1 <1>         0.031660 
     43 H          14.453651   -4.604415   -1.110707 H         1 <1>         0.217351 
     44 H          16.165090   -4.122113    0.772982 H         1 <1>         0.065021 
     45 H          20.654238   -6.316138   -0.666953 H         1 <1>         0.064694 
     46 H          19.086779   -2.077094    0.713377 H         1 <1>         0.217422 
     47 H          21.557487   -4.074352   -0.090712 H         1 <1>         0.217422 
     48 H          14.946131  -11.064350    1.090266 H         1 <1>         0.035649 
     49 H          15.302122  -11.040017   -0.684672 H         1 <1>         0.035649 
     50 H          12.604965  -11.236213   -0.879782 H         1 <1>         0.057472 
     51 H          12.308121  -14.869580   -0.549971 H         1 <1>         0.027427 
     52 H          11.340660  -13.639727    0.304804 H         1 <1>         0.027427 
     53 H          11.716832  -13.450189   -1.443463 H         1 <1>         0.027427 
     54 H          15.375217  -13.281455    0.786727 H         1 <1>         0.027427 
     55 H          14.685810  -14.686817   -0.015669 H         1 <1>         0.027427 
     56 H          14.053100  -14.182645    1.587680 H         1 <1>         0.027427 
@<TRIPOS>BOND
     1    2    1 1    
     2    1   15 1    
     3    1   29 1    
     4    1   30 1    
     5    3    2 1    
     6    2   21 2    
     7    4    3 1    
     8    3   18 2    
     9    4    8 1    
    10   16    4 2    
    11    5    6 2    
    12    5   10 1    
    13    5   16 1    
    14    6    7 1    
    15    6    9 1    
    16    7    8 2    
    17    7   24 1    
    18    8   15 1    
    19    9   31 1    
    20   10   11 1    
    21   10   32 1    
    22   10   33 1    
    23   11   12 2    
    24   11   34 1    
    25   12   13 1    
    26   12   14 1    
    27   13   35 1    
    28   13   36 1    
    29   13   37 1    
    30   14   38 1    
    31   14   39 1    
    32   14   40 1    
    33   15   41 1    
    34   15   42 1    
    35   16   17 1    
    36   17   43 1    
    37   18   19 1    
    38   18   44 1    
    39   19   20 2    
    40   19   22 1    
    41   20   21 1    
    42   20   23 1    
    43   21   45 1    
    44   22   46 1    
    45   23   47 1    
    46   24   25 1    
    47   24   48 1    
    48   24   49 1    
    49   25   26 2    
    50   25   50 1    
    51   26   27 1    
    52   26   28 1    
    53   27   51 1    
    54   27   52 1    
    55   27   53 1    
    56   28   54 1    
    57   28   55 1    
    58   28   56 1    
@<TRIPOS>SUBSTRUCTURE
     1 ****        5 TEMP              0 ****  ****    0 ROOT 
@<TRIPOS>NORMAL
@<TRIPOS>FF_PBC
FORCE_FIELD_SETUP_FEATURE Force Field Setup information
v1.0  0 0.000000 0.000000 0.000000 0.000000 0.000000 0.000000 NONE 0 0 0 0 1 0 0 0 0 0 0 0 0
