@<TRIPOS>MOLECULE
MOL002242
   21    21     1     1     0
SMALL
GASTEIGER


@<TRIPOS>ATOM
      1 C           2.990189    2.349629   -1.475229 C.ar      1 <1>        -0.061723 
      2 C           3.528821    0.983971   -1.280287 C.ar      1 <1>        -0.061202 
      3 C           2.706328   -0.032737   -0.769650 C.ar      1 <1>        -0.054591 
      4 C           1.287864    0.234122   -0.417370 C.ar      1 <1>        -0.024926 
      5 C           0.779964    1.556985   -0.613760 C.ar      1 <1>        -0.054591 
      6 C           1.657387    2.625569   -1.148821 C.ar      1 <1>        -0.061202 
      7 C           0.465951   -0.920386    0.124413 C.2       1 <1>        -0.051311 
      8 C          -0.756339   -0.823579    0.668030 C.2       1 <1>        -0.018948 
      9 H           0.918835   -1.910384    0.064287 H         1 <1>         0.062448 
     10 H          -1.252892    0.137257    0.765671 H         1 <1>         0.065232 
     11 C          -1.508996   -1.994218    1.171192 C.2       1 <1>         0.153058 
     12 C          -2.888702   -1.868649    1.764532 C.3       1 <1>        -0.002001 
     13 O          -1.010986   -3.106722    1.109735 O.2       1 <1>        -0.292977 
     14 H           3.630228    3.132605   -1.869979 H         1 <1>         0.061759 
     15 H           4.563105    0.772456   -1.532985 H         1 <1>         0.061776 
     16 H           3.120451   -1.026291   -0.632089 H         1 <1>         0.062344 
     17 H          -0.246504    1.811561   -0.385394 H         1 <1>         0.062344 
     18 H           1.261616    3.626608   -1.288671 H         1 <1>         0.061776 
     19 H          -3.596770   -2.452290    1.158224 H         1 <1>         0.030912 
     20 H          -2.881905   -2.271298    2.788025 H         1 <1>         0.030912 
     21 H          -3.232546   -0.824309    1.799926 H         1 <1>         0.030912 
@<TRIPOS>BOND
     1    1    2 1    
     2    1    6 2    
     3    1   14 1    
     4    2    3 2    
     5    2   15 1    
     6    3    4 1    
     7    3   16 1    
     8    4    5 2    
     9    4    7 1    
    10    5    6 1    
    11    5   17 1    
    12    6   18 1    
    13    7    8 2    
    14    7    9 1    
    15    8   10 1    
    16    8   11 1    
    17   11   12 1    
    18   11   13 2    
    19   12   19 1    
    20   12   20 1    
    21   12   21 1    
@<TRIPOS>SUBSTRUCTURE
     1 ****        1 TEMP              0 ****  ****    0 ROOT 
@<TRIPOS>NORMAL
@<TRIPOS>FF_PBC
FORCE_FIELD_SETUP_FEATURE Force Field Setup information
v1.0  0 0.000000 0.000000 0.000000 0.000000 0.000000 0.000000 NONE 0 0 0 0 1 0 0 0 0 0 0 0 0
