@<TRIPOS>MOLECULE
MOL005289
   29    28     1     1     0
SMALL
GASTEIGER


@<TRIPOS>ATOM
      1 C          -0.082797   -0.900571    0.006724 C.3       1 <1>        -0.041311 
      2 C           1.292956   -0.156249    0.142354 C.3       1 <1>        -0.041543 
      3 C          -1.341220    0.031992    0.058962 C.3       1 <1>        -0.050466 
      4 C          -0.119829   -1.803302   -1.260511 C.3       1 <1>        -0.062172 
      5 C           1.677602    0.740414   -1.083589 C.3       1 <1>        -0.053070 
      6 C           1.372361    0.658754    1.465916 C.3       1 <1>        -0.062181 
      7 C          -2.034580    0.068783    1.452491 C.3       1 <1>        -0.055661 
      8 C           2.665891    0.057402   -2.070752 C.3       1 <1>        -0.065026 
      9 C          -3.265295    1.014038    1.448010 C.3       1 <1>        -0.065268 
     10 H          -0.150561   -1.603937    0.855652 H         1 <1>         0.030070 
     11 H           2.069998   -0.934779    0.243669 H         1 <1>         0.030062 
     12 H          -1.084482    1.058691   -0.238853 H         1 <1>         0.026785 
     13 H          -2.103490   -0.324594   -0.652768 H         1 <1>         0.026785 
     14 H          -1.014522   -2.446303   -1.246791 H         1 <1>         0.023250 
     15 H           0.762059   -2.461412   -1.297975 H         1 <1>         0.023250 
     16 H          -0.155472   -1.195028   -2.176153 H         1 <1>         0.023250 
     17 H           2.181660    1.658668   -0.739017 H         1 <1>         0.026529 
     18 H           0.785136    1.058708   -1.642180 H         1 <1>         0.026529 
     19 H           2.396819    1.031721    1.625364 H         1 <1>         0.023250 
     20 H           1.110598    0.027966    2.329498 H         1 <1>         0.023250 
     21 H           0.698001    1.527088    1.435502 H         1 <1>         0.023250 
     22 H          -2.371912   -0.946257    1.722423 H         1 <1>         0.026273 
     23 H          -1.336664    0.411504    2.230614 H         1 <1>         0.026273 
     24 H           2.896082    0.739712   -2.904827 H         1 <1>         0.022986 
     25 H           2.251020   -0.867560   -2.493594 H         1 <1>         0.022986 
     26 H           3.609764   -0.187631   -1.558491 H         1 <1>         0.022986 
     27 H          -3.743752    1.019597    2.440348 H         1 <1>         0.022978 
     28 H          -2.958710    2.042910    1.202748 H         1 <1>         0.022978 
     29 H          -4.006859    0.679875    0.705624 H         1 <1>         0.022978 
@<TRIPOS>BOND
     1    1    2 1    
     2    1    3 1    
     3    1    4 1    
     4    1   10 1    
     5    2    5 1    
     6    2    6 1    
     7    2   11 1    
     8    3    7 1    
     9    3   12 1    
    10    3   13 1    
    11    4   14 1    
    12    4   15 1    
    13    4   16 1    
    14    5    8 1    
    15    5   17 1    
    16    5   18 1    
    17    6   19 1    
    18    6   20 1    
    19    6   21 1    
    20    7    9 1    
    21    7   22 1    
    22    7   23 1    
    23    8   24 1    
    24    8   25 1    
    25    8   26 1    
    26    9   27 1    
    27    9   28 1    
    28    9   29 1    
@<TRIPOS>SUBSTRUCTURE
     1 ****        1 TEMP              0 ****  ****    0 ROOT 
@<TRIPOS>NORMAL
@<TRIPOS>FF_PBC
FORCE_FIELD_SETUP_FEATURE Force Field Setup information
v1.0  0 0.000000 0.000000 0.000000 0.000000 0.000000 0.000000 NONE 0 0 0 0 1 0 0 0 0 0 0 0 0
