@<TRIPOS>MOLECULE
MOL002271
   32    33     1     1     0
SMALL
GASTEIGER


@<TRIPOS>ATOM
      1 C          -3.559590   -0.010022    0.736433 C.2       1 <1>         0.075470 
      2 C          -2.694431   -0.831610    1.343607 C.2       1 <1>         0.074224 
      3 C          -1.371213   -0.334172    1.871414 C.3       1 <1>         0.014582 
      4 C          -0.945507    0.880086    1.014259 C.3       1 <1>         0.112952 
      5 C          -2.106542    1.820980    0.850155 C.2       1 <1>         0.277693 
      6 O          -3.310909    1.300320    0.585751 O.3       1 <1>        -0.282732 
      7 C           0.218485    1.630219    1.615845 C.2       1 <1>         0.169072 
      8 C           1.164428    2.419421    0.803396 C.2       1 <1>        -0.017853 
      9 C           1.791417    2.028563   -0.314441 C.2       1 <1>        -0.051121 
     10 O          -1.963918    3.030946    0.915811 O.2       1 <1>        -0.263793 
     11 C           1.684501    0.635977   -0.894722 C.ar      1 <1>        -0.020065 
     12 C           1.495422    0.473658   -2.356782 C.ar      1 <1>        -0.024622 
     13 C           1.383391   -0.760090   -2.901525 C.ar      1 <1>         0.075576 
     14 C           1.444035   -1.956718   -2.022839 C.ar      1 <1>        -0.002134 
     15 C           1.622819   -1.821457   -0.691831 C.ar      1 <1>         0.075576 
     16 C           1.765432   -0.465301   -0.102607 C.ar      1 <1>        -0.024622 
     17 O           0.380793    1.612095    2.824341 O.2       1 <1>        -0.291834 
     18 O          -3.007951   -2.124173    1.510166 O.3       1 <1>        -0.362110 
     19 O           1.210882   -0.884141   -4.282422 O.3       1 <1>        -0.359731 
     20 O           1.666368   -2.962499    0.112207 O.3       1 <1>        -0.359731 
     21 H          -4.507946   -0.406697    0.373748 H         1 <1>         0.091412 
     22 H          -1.515467   -0.057281    2.927405 H         1 <1>         0.034507 
     23 H          -0.579668   -1.097743    1.804840 H         1 <1>         0.034507 
     24 H          -0.724018    0.545118   -0.008132 H         1 <1>         0.048746 
     25 H           1.346679    3.428179    1.174912 H         1 <1>         0.065264 
     26 H           2.421587    2.741358   -0.848157 H         1 <1>         0.062451 
     27 H           1.445746    1.347966   -2.997782 H         1 <1>         0.064912 
     28 H           1.345177   -2.950631   -2.444114 H         1 <1>         0.066901 
     29 H           1.937237   -0.356932    0.962718 H         1 <1>         0.064912 
     30 H          -2.373537   -2.645080    1.990290 H         1 <1>         0.216962 
     31 H           1.107707   -1.782911   -4.575034 H         1 <1>         0.217315 
     32 H           1.940893   -2.789132    1.006591 H         1 <1>         0.217315 
@<TRIPOS>BOND
     1    1    2 2    
     2    1    6 1    
     3    1   21 1    
     4    2    3 1    
     5    2   18 1    
     6    3    4 1    
     7    3   22 1    
     8    3   23 1    
     9    4    5 1    
    10    4    7 1    
    11    4   24 1    
    12    5    6 1    
    13    5   10 2    
    14    7    8 1    
    15    7   17 2    
    16    8    9 2    
    17    8   25 1    
    18    9   11 1    
    19    9   26 1    
    20   11   12 1    
    21   11   16 2    
    22   12   13 2    
    23   12   27 1    
    24   13   14 1    
    25   13   19 1    
    26   14   15 2    
    27   14   28 1    
    28   15   16 1    
    29   15   20 1    
    30   16   29 1    
    31   18   30 1    
    32   19   31 1    
    33   20   32 1    
@<TRIPOS>SUBSTRUCTURE
     1 ****        1 TEMP              0 ****  ****    0 ROOT 
@<TRIPOS>NORMAL
@<TRIPOS>FF_PBC
FORCE_FIELD_SETUP_FEATURE Force Field Setup information
v1.0  0 0.000000 0.000000 0.000000 0.000000 0.000000 0.000000 NONE 0 0 0 0 1 0 0 0 0 0 0 0 0
