@<TRIPOS>MOLECULE
MOL000057
   42    42     1     1     0
SMALL
GASTEIGER


@<TRIPOS>ATOM
      1 C          -1.465110   -0.430270   -1.518038 C.ar      1 <1>         0.059304 
      2 C          -1.816516    0.976205   -1.194316 C.ar      1 <1>         0.059304 
      3 C          -2.440940    1.776777   -2.177327 C.ar      1 <1>        -0.048115 
      4 C          -2.774705    1.209107   -3.504895 C.ar      1 <1>        -0.060980 
      5 C          -2.469306   -0.128241   -3.791395 C.ar      1 <1>        -0.060980 
      6 C          -1.793045   -0.965244   -2.773270 C.ar      1 <1>        -0.048115 
      7 C          -0.747248   -1.311990   -0.519491 C.2       1 <1>         0.294577 
      8 O          -1.378871   -2.212071    0.007906 O.2       1 <1>        -0.259203 
      9 O           0.546793   -1.170594   -0.189566 O.3       1 <1>        -0.311159 
     10 C          -1.515030    1.545880    0.175355 C.2       1 <1>         0.294577 
     11 O          -1.526408    2.757265    0.331343 O.2       1 <1>        -0.259203 
     12 O          -1.242518    0.706507    1.185918 O.3       1 <1>        -0.311159 
     13 C          -0.883234    1.352312    2.424694 C.3       1 <1>         0.059703 
     14 C          -0.678803    0.286539    3.537853 C.3       1 <1>        -0.022623 
     15 C          -2.001709   -0.477624    3.821344 C.3       1 <1>        -0.060562 
     16 C           0.452306   -0.710883    3.165637 C.3       1 <1>        -0.060562 
     17 C           1.281356   -0.196974   -0.957285 C.3       1 <1>         0.059703 
     18 C           2.745125   -0.152248   -0.439346 C.3       1 <1>        -0.022623 
     19 C           3.404945   -1.556464   -0.514918 C.3       1 <1>        -0.060562 
     20 C           3.580609    0.879893   -1.246275 C.3       1 <1>        -0.060562 
     21 H          -2.688624    2.812081   -1.965709 H         1 <1>         0.062548 
     22 H          -3.262244    1.828742   -4.252082 H         1 <1>         0.061779 
     23 H          -2.722296   -0.551607   -4.758551 H         1 <1>         0.061779 
     24 H          -1.545587   -1.996278   -3.004312 H         1 <1>         0.062548 
     25 H          -1.673315    2.050286    2.751050 H         1 <1>         0.056848 
     26 H           0.053470    1.918851    2.287371 H         1 <1>         0.056848 
     27 H          -0.379265    0.811944    4.462701 H         1 <1>         0.031772 
     28 H          -1.859907   -1.194259    4.645225 H         1 <1>         0.023304 
     29 H          -2.799409    0.224682    4.108540 H         1 <1>         0.023304 
     30 H          -2.328678   -1.031511    2.927762 H         1 <1>         0.023304 
     31 H           1.382811   -0.174915    2.923157 H         1 <1>         0.023304 
     32 H           0.652888   -1.390159    4.008586 H         1 <1>         0.023304 
     33 H           0.160124   -1.318601    2.297630 H         1 <1>         0.023304 
     34 H           0.855108    0.811573   -0.847912 H         1 <1>         0.056848 
     35 H           1.280110   -0.476747   -2.023379 H         1 <1>         0.056848 
     36 H           2.724354    0.163590    0.618900 H         1 <1>         0.031772 
     37 H           4.437438   -1.516651   -0.133920 H         1 <1>         0.023304 
     38 H           2.843292   -2.282750    0.092886 H         1 <1>         0.023304 
     39 H           3.428731   -1.914109   -1.555544 H         1 <1>         0.023304 
     40 H           4.605262    0.940524   -0.846912 H         1 <1>         0.023304 
     41 H           3.126343    1.881242   -1.183670 H         1 <1>         0.023304 
     42 H           3.634355    0.584429   -2.305550 H         1 <1>         0.023304 
@<TRIPOS>BOND
     1    1    2 1    
     2    1    6 2    
     3    1    7 1    
     4    2    3 2    
     5    2   10 1    
     6    3    4 1    
     7    3   21 1    
     8    4    5 2    
     9    4   22 1    
    10    5    6 1    
    11    5   23 1    
    12    6   24 1    
    13    7    8 2    
    14    7    9 1    
    15    9   17 1    
    16   10   11 2    
    17   10   12 1    
    18   12   13 1    
    19   13   14 1    
    20   13   25 1    
    21   13   26 1    
    22   14   15 1    
    23   14   16 1    
    24   14   27 1    
    25   15   28 1    
    26   15   29 1    
    27   15   30 1    
    28   16   31 1    
    29   16   32 1    
    30   16   33 1    
    31   17   18 1    
    32   17   34 1    
    33   17   35 1    
    34   18   19 1    
    35   18   20 1    
    36   18   36 1    
    37   19   37 1    
    38   19   38 1    
    39   19   39 1    
    40   20   40 1    
    41   20   41 1    
    42   20   42 1    
@<TRIPOS>SUBSTRUCTURE
     1 ****        1 TEMP              0 ****  ****    0 ROOT 
@<TRIPOS>NORMAL
@<TRIPOS>FF_PBC
FORCE_FIELD_SETUP_FEATURE Force Field Setup information
v1.0  0 0.000000 0.000000 0.000000 0.000000 0.000000 0.000000 NONE 0 0 0 0 1 0 0 0 0 0 0 0 0
