@<TRIPOS>MOLECULE
MOL002934
   45    47     1     1     0
SMALL
GASTEIGER


@<TRIPOS>ATOM
      1 C          -2.951183    1.968616    0.053197 C.ar      1 <1>         0.140841 
      2 C          -2.454726    3.353504   -0.192146 C.ar      1 <1>         0.138848 
      3 C          -1.083019    3.584546   -0.395269 C.ar      1 <1>         0.118646 
      4 C          -0.125599    2.457576   -0.356102 C.ar      1 <1>         0.087039 
      5 C          -0.552775    1.148645   -0.112494 C.ar      1 <1>         0.128906 
      6 C          -2.004815    0.876556    0.103136 C.ar      1 <1>         0.139625 
      7 O           0.386344    0.107184   -0.067063 O.3       1 <1>        -0.305038 
      8 C           1.712164    0.286386   -0.198925 C.2       1 <1>         0.096513 
      9 C           2.224093    1.495676   -0.458188 C.2       1 <1>         0.017007 
     10 C           1.351712    2.667446   -0.571460 C.2       1 <1>         0.193681 
     11 C           2.589980   -0.939613   -0.045106 C.ar      1 <1>         0.037713 
     12 C           2.069253   -2.242704   -0.522768 C.ar      1 <1>        -0.019584 
     13 C           2.810778   -3.422203   -0.390312 C.ar      1 <1>         0.076610 
     14 C           4.158021   -3.364423    0.231871 C.ar      1 <1>        -0.029223 
     15 C           4.670625   -2.138166    0.680424 C.ar      1 <1>        -0.028839 
     16 C           3.875486   -0.889312    0.553340 C.ar      1 <1>         0.082344 
     17 O          -0.617067    4.880356   -0.629535 O.3       1 <1>        -0.356587 
     18 O           1.820905    3.763459   -0.830027 O.2       1 <1>        -0.287015 
     19 O           4.374645    0.324491    1.032360 O.3       1 <1>        -0.359159 
     20 O          -2.474990   -0.420737    0.356401 O.3       1 <1>        -0.342861 
     21 C          -1.686615   -1.607492    0.201484 C.3       1 <1>         0.043244 
     22 O          -4.332795    1.760547    0.228034 O.3       1 <1>        -0.342828 
     23 C          -4.946197    0.479772    0.449828 C.3       1 <1>         0.043244 
     24 O           2.254461   -4.620077   -0.854377 O.3       1 <1>        -0.347891 
     25 C           2.906000   -5.884410   -0.654509 C.3       1 <1>         0.043026 
     26 O          -3.301319    4.474898   -0.226454 O.3       1 <1>        -0.342879 
     27 C          -4.709231    4.407698    0.046382 C.3       1 <1>         0.043244 
     28 H           3.289808    1.662393   -0.602023 H         1 <1>         0.068220 
     29 H           1.092413   -2.294883   -0.987501 H         1 <1>         0.065080 
     30 H           4.761585   -4.257337    0.348119 H         1 <1>         0.064408 
     31 H           5.659370   -2.106951    1.128764 H         1 <1>         0.064419 
     32 H          -1.322141    5.520291   -0.618690 H         1 <1>         0.217446 
     33 H           5.219312    0.258884    1.463498 H         1 <1>         0.217339 
     34 H          -2.352421   -2.465689    0.376443 H         1 <1>         0.052872 
     35 H          -1.294939   -1.674960   -0.824529 H         1 <1>         0.052872 
     36 H          -0.872672   -1.655375    0.940687 H         1 <1>         0.052872 
     37 H          -6.031421    0.638595    0.526205 H         1 <1>         0.052872 
     38 H          -4.763791   -0.204251   -0.393507 H         1 <1>         0.052872 
     39 H          -4.603588    0.032169    1.394996 H         1 <1>         0.052872 
     40 H           2.256585   -6.662376   -1.084339 H         1 <1>         0.052870 
     41 H           3.041168   -6.095851    0.417805 H         1 <1>         0.052870 
     42 H           3.875899   -5.921577   -1.173837 H         1 <1>         0.052870 
     43 H          -5.099018    5.435841    0.002863 H         1 <1>         0.052872 
     44 H          -4.904386    4.008142    1.053476 H         1 <1>         0.052872 
     45 H          -5.232530    3.811008   -0.715911 H         1 <1>         0.052872 
@<TRIPOS>BOND
     1    1    2 1    
     2    1    6 2    
     3    1   22 1    
     4    2    3 2    
     5    2   26 1    
     6    3    4 1    
     7    3   17 1    
     8    4    5 2    
     9    4   10 1    
    10    5    6 1    
    11    5    7 1    
    12    6   20 1    
    13    7    8 1    
    14    8    9 2    
    15    8   11 1    
    16    9   10 1    
    17    9   28 1    
    18   10   18 2    
    19   11   12 1    
    20   11   16 2    
    21   12   13 2    
    22   12   29 1    
    23   13   14 1    
    24   13   24 1    
    25   14   15 2    
    26   14   30 1    
    27   15   16 1    
    28   15   31 1    
    29   16   19 1    
    30   17   32 1    
    31   19   33 1    
    32   20   21 1    
    33   21   34 1    
    34   21   35 1    
    35   21   36 1    
    36   22   23 1    
    37   23   37 1    
    38   23   38 1    
    39   23   39 1    
    40   24   25 1    
    41   25   40 1    
    42   25   41 1    
    43   25   42 1    
    44   26   27 1    
    45   27   43 1    
    46   27   44 1    
    47   27   45 1    
@<TRIPOS>SUBSTRUCTURE
     1 ****        1 TEMP              0 ****  ****    0 ROOT 
@<TRIPOS>NORMAL
@<TRIPOS>FF_PBC
FORCE_FIELD_SETUP_FEATURE Force Field Setup information
v1.0  0 0.000000 0.000000 0.000000 0.000000 0.000000 0.000000 NONE 0 0 0 0 1 0 0 0 0 0 0 0 0
