@<TRIPOS>MOLECULE
MOL002294
   98   102     1     1     0
SMALL
GASTEIGER


@<TRIPOS>ATOM
      1 C          -3.599634   -1.712547   -4.053207 C.3       1 <1>        -0.025405 
      2 C          -4.526056   -2.655775   -3.255375 C.3       1 <1>         0.065490 
      3 C          -3.630021   -3.408836   -2.228070 C.3       1 <1>        -0.004719 
      4 C          -2.377015   -2.665795   -1.791641 C.2       1 <1>        -0.064832 
      5 C          -2.420187   -1.139232   -1.783526 C.3       1 <1>        -0.007819 
      6 C          -3.037298   -0.599817   -3.128165 C.3       1 <1>        -0.041305 
      7 O          -5.608727   -1.845819   -2.734777 O.3       1 <1>        -0.345027 
      8 C          -1.303452   -3.384033   -1.430838 C.2       1 <1>        -0.083873 
      9 C           0.009646   -2.801885   -0.990018 C.3       1 <1>        -0.031102 
     10 C          -0.151457   -1.337327   -0.510900 C.3       1 <1>        -0.030653 
     11 C          -0.968935   -0.553048   -1.580847 C.3       1 <1>        -0.028547 
     12 C          -3.371784   -0.772902   -0.594760 C.3       1 <1>        -0.055578 
     13 C           1.244683   -0.683867   -0.308881 C.3       1 <1>        -0.031972 
     14 C           1.216750    0.812154    0.115462 C.3       1 <1>        -0.025885 
     15 C           0.496971    1.541238   -1.067542 C.3       1 <1>        -0.046813 
     16 C          -0.938690    0.982773   -1.300191 C.3       1 <1>        -0.048644 
     17 H          -0.685761   -1.368172    0.447470 H         1 <1>         0.030949 
     18 C           2.165114   -1.341144    0.735827 C.3       1 <1>        -0.049160 
     19 C           3.246971   -0.247149    0.960537 C.3       1 <1>        -0.049187 
     20 C           2.755065    1.078127    0.291309 C.3       1 <1>        -0.032778 
     21 C           0.491033    1.060867    1.482248 C.3       1 <1>        -0.059038 
     22 H          -0.416527   -0.704040   -2.524218 H         1 <1>         0.031195 
     23 H           1.777178   -0.766343   -1.274771 H         1 <1>         0.030896 
     24 C           3.229357    2.385135    1.031930 C.3       1 <1>        -0.040533 
     25 C           4.789099    2.540673    1.125118 C.3       1 <1>        -0.049933 
     26 C           5.525154    1.663113    2.181279 C.3       1 <1>        -0.049734 
     27 C           6.957386    2.149585    2.600211 C.3       1 <1>        -0.038944 
     28 C           6.943476    3.443267    3.502696 C.3       1 <1>        -0.043894 
     29 C           7.923836    2.172359    1.372283 C.3       1 <1>        -0.052828 
     30 C           9.433121    2.115067    1.737150 C.3       1 <1>        -0.065017 
     31 C           7.838238    3.283741    4.770846 C.3       1 <1>        -0.062414 
     32 C           7.299535    4.787667    2.794837 C.3       1 <1>        -0.062414 
     33 C           2.666909    3.668706    0.343275 C.3       1 <1>        -0.062146 
     34 C          -6.669455   -2.569264   -2.070874 C.3       1 <1>         0.190671 
     35 O          -6.276079   -2.891755   -0.724336 O.3       1 <1>        -0.317587 
     36 C          -7.284414   -3.589130    0.024947 C.3       1 <1>         0.187905 
     37 C          -8.561397   -2.722810    0.154309 C.3       1 <1>         0.134103 
     38 C          -9.051810   -2.290904   -1.248916 C.3       1 <1>         0.116311 
     39 C          -7.894115   -1.622637   -2.031913 C.3       1 <1>         0.134295 
     40 O          -8.354669   -1.324667   -3.365460 O.3       1 <1>        -0.384101 
     41 O         -10.154948   -1.378303   -1.083633 O.3       1 <1>        -0.386314 
     42 O          -9.579684   -3.481711    0.832930 O.3       1 <1>        -0.384108 
     43 O          -6.710536   -3.825802    1.320328 O.3       1 <1>        -0.364817 
     44 H          -4.162989   -1.257004   -4.885975 H         1 <1>         0.029048 
     45 H          -2.767010   -2.293726   -4.485669 H         1 <1>         0.029048 
     46 H          -4.965540   -3.373441   -3.970760 H         1 <1>         0.059993 
     47 H          -3.306785   -4.336118   -2.731272 H         1 <1>         0.033519 
     48 H          -4.183248   -3.721983   -1.335297 H         1 <1>         0.033519 
     49 H          -3.851061    0.113718   -2.920605 H         1 <1>         0.027446 
     50 H          -2.300699   -0.050321   -3.736003 H         1 <1>         0.027446 
     51 H          -1.343558   -4.474677   -1.450996 H         1 <1>         0.057190 
     52 H           0.429008   -3.414311   -0.175197 H         1 <1>         0.031025 
     53 H           0.690445   -2.866636   -1.853878 H         1 <1>         0.031025 
     54 H          -3.585037    0.303653   -0.546987 H         1 <1>         0.023820 
     55 H          -2.966296   -1.086693    0.375419 H         1 <1>         0.023820 
     56 H          -4.343411   -1.266229   -0.703314 H         1 <1>         0.023820 
     57 H           0.384660    2.616769   -0.890861 H         1 <1>         0.027078 
     58 H           1.078039    1.427028   -1.997669 H         1 <1>         0.027078 
     59 H          -1.391524    1.524939   -2.146183 H         1 <1>         0.026846 
     60 H          -1.530386    1.231144   -0.411763 H         1 <1>         0.026846 
     61 H           2.596291   -2.292422    0.381270 H         1 <1>         0.026828 
     62 H           1.594484   -1.552024    1.654258 H         1 <1>         0.026828 
     63 H           3.399594   -0.139452    2.044945 H         1 <1>         0.026828 
     64 H           4.187300   -0.579669    0.492996 H         1 <1>         0.026828 
     65 H           3.190157    1.125957   -0.721975 H         1 <1>         0.030870 
     66 H          -0.509832    0.619401    1.537611 H         1 <1>         0.023524 
     67 H           0.368167    2.139408    1.654517 H         1 <1>         0.023524 
     68 H           1.055297    0.662055    2.337798 H         1 <1>         0.023524 
     69 H           2.847519    2.381562    2.065873 H         1 <1>         0.030096 
     70 H           4.993916    3.563831    1.453867 H         1 <1>         0.026802 
     71 H           5.238849    2.414367    0.128582 H         1 <1>         0.026802 
     72 H           5.643424    0.647809    1.779503 H         1 <1>         0.026810 
     73 H           4.903695    1.586053    3.088574 H         1 <1>         0.026810 
     74 H           7.319947    1.323751    3.239477 H         1 <1>         0.030319 
     75 H           5.920217    3.569474    3.897342 H         1 <1>         0.029814 
     76 H           7.723615    3.048884    0.737572 H         1 <1>         0.026538 
     77 H           7.728434    1.276687    0.756786 H         1 <1>         0.026538 
     78 H          10.031827    2.029585    0.815438 H         1 <1>         0.022986 
     79 H           9.644508    1.236310    2.366436 H         1 <1>         0.022986 
     80 H           9.770938    3.013106    2.269368 H         1 <1>         0.022986 
     81 H           7.786348    4.186764    5.400138 H         1 <1>         0.023242 
     82 H           7.498880    2.432957    5.384040 H         1 <1>         0.023242 
     83 H           8.890306    3.115755    4.499472 H         1 <1>         0.023242 
     84 H           7.110944    5.630918    3.479238 H         1 <1>         0.023242 
     85 H           6.707659    4.972534    1.888857 H         1 <1>         0.023242 
     86 H           8.361343    4.825679    2.517639 H         1 <1>         0.023242 
     87 H           3.127933    4.592348    0.724198 H         1 <1>         0.023250 
     88 H           1.598364    3.800285    0.540923 H         1 <1>         0.023250 
     89 H           2.837324    3.634965   -0.743753 H         1 <1>         0.023250 
     90 H          -6.953281   -3.466379   -2.646050 H         1 <1>         0.093838 
     91 H          -7.522972   -4.555850   -0.452973 H         1 <1>         0.093635 
     92 H          -8.298446   -1.823582    0.737173 H         1 <1>         0.067092 
     93 H          -9.391437   -3.186816   -1.794710 H         1 <1>         0.064843 
     94 H          -7.604120   -0.692133   -1.511509 H         1 <1>         0.067098 
     95 H          -7.672683   -0.918540   -3.892474 H         1 <1>         0.210110 
     96 H         -10.491774   -1.068860   -1.919906 H         1 <1>         0.210006 
     97 H         -10.389953   -2.986384    0.922245 H         1 <1>         0.210110 
     98 H          -7.318005   -4.264719    1.907042 H         1 <1>         0.212562 
@<TRIPOS>BOND
     1    1    2 1    
     2    1    6 1    
     3    1   44 1    
     4    1   45 1    
     5    2    3 1    
     6    2    7 1    
     7    2   46 1    
     8    3    4 1    
     9    3   47 1    
    10    3   48 1    
    11    4    5 1    
    12    4    8 2    
    13    5    6 1    
    14    5   11 1    
    15    5   12 1    
    16    6   49 1    
    17    6   50 1    
    18    7   34 1    
    19    8    9 1    
    20    8   51 1    
    21    9   10 1    
    22    9   52 1    
    23    9   53 1    
    24   10   11 1    
    25   10   13 1    
    26   10   17 1    
    27   11   16 1    
    28   11   22 1    
    29   12   54 1    
    30   12   55 1    
    31   12   56 1    
    32   13   14 1    
    33   13   18 1    
    34   13   23 1    
    35   14   15 1    
    36   14   20 1    
    37   14   21 1    
    38   15   16 1    
    39   15   57 1    
    40   15   58 1    
    41   16   59 1    
    42   16   60 1    
    43   18   19 1    
    44   18   61 1    
    45   18   62 1    
    46   19   20 1    
    47   19   63 1    
    48   19   64 1    
    49   20   24 1    
    50   20   65 1    
    51   21   66 1    
    52   21   67 1    
    53   21   68 1    
    54   24   25 1    
    55   24   33 1    
    56   24   69 1    
    57   25   26 1    
    58   25   70 1    
    59   25   71 1    
    60   26   27 1    
    61   26   72 1    
    62   26   73 1    
    63   27   28 1    
    64   27   29 1    
    65   27   74 1    
    66   28   31 1    
    67   28   32 1    
    68   28   75 1    
    69   29   30 1    
    70   29   76 1    
    71   29   77 1    
    72   30   78 1    
    73   30   79 1    
    74   30   80 1    
    75   31   81 1    
    76   31   82 1    
    77   31   83 1    
    78   32   84 1    
    79   32   85 1    
    80   32   86 1    
    81   33   87 1    
    82   33   88 1    
    83   33   89 1    
    84   34   35 1    
    85   34   39 1    
    86   34   90 1    
    87   35   36 1    
    88   36   37 1    
    89   36   43 1    
    90   36   91 1    
    91   37   38 1    
    92   37   42 1    
    93   37   92 1    
    94   38   39 1    
    95   38   41 1    
    96   38   93 1    
    97   39   40 1    
    98   39   94 1    
    99   40   95 1    
   100   41   96 1    
   101   42   97 1    
   102   43   98 1    
@<TRIPOS>SUBSTRUCTURE
     1 ****        1 TEMP              0 ****  ****    0 ROOT 
@<TRIPOS>NORMAL
@<TRIPOS>FF_PBC
FORCE_FIELD_SETUP_FEATURE Force Field Setup information
v1.0  0 0.000000 0.000000 0.000000 0.000000 0.000000 0.000000 NONE 0 0 0 0 1 0 0 0 0 0 0 0 0
