@<TRIPOS>MOLECULE
MOL006128
  103   104     1     1     0
SMALL
GASTEIGER


@<TRIPOS>ATOM
      1 C          -0.209850   -6.757666    1.990444 C.3       1 <1>         0.113365 
      2 C           0.459965   -8.130280    2.274466 C.3       1 <1>         0.111906 
      3 C           0.414611   -9.003990    0.994236 C.3       1 <1>         0.114061 
      4 C          -1.068248   -9.190641    0.587619 C.3       1 <1>         0.134113 
      5 C          -1.786135   -7.815531    0.468162 C.3       1 <1>         0.188012 
      6 O          -1.594096   -6.963712    1.617629 O.3       1 <1>        -0.340522 
      7 O           1.801839   -7.944664    2.771886 O.3       1 <1>        -0.386488 
      8 O          -1.677844  -10.026068    1.597079 O.3       1 <1>        -0.384104 
      9 O           1.210343   -8.420405   -0.055180 O.3       1 <1>        -0.386401 
     10 O          -1.428023   -7.114165   -0.736346 O.3       1 <1>        -0.346071 
     11 C           0.642861   -5.837755    1.065525 C.3       1 <1>         0.079556 
     12 O           0.339059   -4.437106    1.278874 O.3       1 <1>        -0.346050 
     13 C           1.260304   -3.557376    0.594650 C.3       1 <1>         0.188012 
     14 O           2.623461   -3.718267    1.046251 O.3       1 <1>        -0.340532 
     15 C           2.885104   -3.254808    2.393559 C.3       1 <1>         0.113005 
     16 C           2.437259   -1.782162    2.621525 C.3       1 <1>         0.111896 
     17 C           0.972892   -1.577441    2.153392 C.3       1 <1>         0.114061 
     18 C           0.826410   -2.071255    0.689819 C.3       1 <1>         0.134113 
     19 O           0.080298   -2.257170    3.058614 O.3       1 <1>        -0.386401 
     20 C           2.388629   -4.215163    3.507557 C.3       1 <1>         0.073015 
     21 O           1.645901   -1.303510   -0.218104 O.3       1 <1>        -0.384104 
     22 O           3.352890   -0.908620    1.921753 O.3       1 <1>        -0.386488 
     23 O           2.866615   -3.741997    4.782900 O.3       1 <1>        -0.392366 
     24 C          -2.328378   -6.020372   -1.027229 C.3       1 <1>         0.078853 
     25 C          -1.783371   -5.071373   -2.127869 C.3       1 <1>         0.102368 
     26 O          -1.371821   -5.837656   -3.275488 O.3       1 <1>        -0.387214 
     27 C          -2.862196   -4.032740   -2.543713 C.3       1 <1>         0.085122 
     28 O          -2.228882   -2.877043   -3.127772 O.3       1 <1>        -0.312540 
     29 C          -3.101212   -1.926099   -3.493062 C.2       1 <1>         0.262238 
     30 C          -2.503574   -0.570765   -3.757847 C.3       1 <1>         0.033200 
     31 O          -4.304058   -2.118075   -3.580788 O.2       1 <1>        -0.264974 
     32 C          -1.637107   -0.148023   -2.539880 C.3       1 <1>        -0.044055 
     33 C          -1.390424    1.382920   -2.477691 C.3       1 <1>        -0.052596 
     34 C          -0.410734    1.720148   -1.318860 C.3       1 <1>        -0.053036 
     35 C          -0.344988    3.242313   -1.029668 C.3       1 <1>        -0.052779 
     36 C           0.667761    3.550211    0.110837 C.3       1 <1>        -0.049616 
     37 C           0.732018    5.072926    0.401401 C.3       1 <1>        -0.034751 
     38 C           1.752399    5.426394    1.461726 C.2       1 <1>        -0.087640 
     39 C           2.330835    6.632102    1.579788 C.2       1 <1>        -0.084202 
     40 C           2.020797    7.813926    0.685849 C.3       1 <1>        -0.016536 
     41 C           2.179117    9.146878    1.380084 C.2       1 <1>        -0.083911 
     42 C           1.434350   10.239817    1.135488 C.2       1 <1>        -0.083911 
     43 C           0.329039   10.340665    0.104741 C.3       1 <1>        -0.016536 
     44 C           0.213391   11.717169   -0.508421 C.2       1 <1>        -0.084210 
     45 C          -0.475424   11.967822   -1.632756 C.2       1 <1>        -0.087899 
     46 C          -1.240045   10.919017   -2.406110 C.3       1 <1>        -0.037599 
     47 C          -2.272197   11.555179   -3.371753 C.3       1 <1>        -0.061821 
     48 H          -0.247536   -6.231559    2.955801 H         1 <1>         0.064677 
     49 H          -0.132529   -8.628283    3.062331 H         1 <1>         0.064673 
     50 H           0.835899   -9.996243    1.233749 H         1 <1>         0.064758 
     51 H          -1.114280   -9.709319   -0.385853 H         1 <1>         0.067095 
     52 H          -2.861012   -8.048283    0.418547 H         1 <1>         0.093741 
     53 H           2.243475   -8.765536    2.970480 H         1 <1>         0.210004 
     54 H          -2.587326  -10.252246    1.417589 H         1 <1>         0.210110 
     55 H           1.219123   -8.925750   -0.861328 H         1 <1>         0.210005 
     56 H           0.505768   -6.077171    0.007278 H         1 <1>         0.058744 
     57 H           1.703080   -6.013055    1.291857 H         1 <1>         0.058744 
     58 H           1.246810   -3.801099   -0.480556 H         1 <1>         0.093741 
     59 H           3.985684   -3.264283    2.483497 H         1 <1>         0.064668 
     60 H           2.492991   -1.546915    3.697069 H         1 <1>         0.064673 
     61 H           0.741708   -0.498020    2.201231 H         1 <1>         0.064758 
     62 H          -0.229472   -1.986903    0.378519 H         1 <1>         0.067095 
     63 H          -0.838310   -2.168920    2.831862 H         1 <1>         0.210005 
     64 H           1.292610   -4.279281    3.520322 H         1 <1>         0.058370 
     65 H           2.798806   -5.221776    3.317542 H         1 <1>         0.058370 
     66 H           1.495859   -0.366511   -0.169827 H         1 <1>         0.210110 
     67 H           3.174150    0.017079    2.051280 H         1 <1>         0.210004 
     68 H           2.609470   -4.304788    5.508190 H         1 <1>         0.209508 
     69 H          -2.510455   -5.415009   -0.123039 H         1 <1>         0.058724 
     70 H          -3.283595   -6.443018   -1.375479 H         1 <1>         0.058724 
     71 H          -0.916669   -4.534927   -1.705447 H         1 <1>         0.063942 
     72 H          -1.007598   -5.287777   -3.961946 H         1 <1>         0.209975 
     73 H          -3.564235   -4.513628   -3.243590 H         1 <1>         0.059240 
     74 H          -3.417126   -3.700403   -1.650673 H         1 <1>         0.059240 
     75 H          -3.327478    0.143776   -3.904351 H         1 <1>         0.036606 
     76 H          -1.905461   -0.597645   -4.680530 H         1 <1>         0.036606 
     77 H          -0.678737   -0.690200   -2.577487 H         1 <1>         0.027004 
     78 H          -2.154713   -0.444892   -1.612479 H         1 <1>         0.027004 
     79 H          -2.355642    1.889251   -2.309234 H         1 <1>         0.026540 
     80 H          -0.973977    1.736277   -3.435780 H         1 <1>         0.026540 
     81 H           0.593794    1.364642   -1.599765 H         1 <1>         0.026529 
     82 H          -0.728245    1.203472   -0.397216 H         1 <1>         0.026529 
     83 H          -1.343730    3.599575   -0.729518 H         1 <1>         0.026538 
     84 H          -0.048797    3.775849   -1.947676 H         1 <1>         0.026538 
     85 H           1.670928    3.200282   -0.181234 H         1 <1>         0.026822 
     86 H           0.369737    3.015894    1.027545 H         1 <1>         0.026822 
     87 H          -0.256902    5.421489    0.740299 H         1 <1>         0.030732 
     88 H           0.981723    5.572280   -0.547597 H         1 <1>         0.030732 
     89 H           2.030978    4.648370    2.175770 H         1 <1>         0.056905 
     90 H           3.076085    6.767208    2.366592 H         1 <1>         0.057203 
     91 H           0.989983    7.711921    0.328469 H         1 <1>         0.034962 
     92 H           2.709645    7.787933   -0.171982 H         1 <1>         0.034962 
     93 H           2.962185    9.231122    2.134569 H         1 <1>         0.057212 
     94 H           1.639547   11.128899    1.734263 H         1 <1>         0.057212 
     95 H           0.492845    9.636609   -0.723100 H         1 <1>         0.034962 
     96 H          -0.620272   10.097006    0.605701 H         1 <1>         0.034962 
     97 H           0.713568   12.553717   -0.018228 H         1 <1>         0.057203 
     98 H          -0.482077   12.991115   -2.009900 H         1 <1>         0.056896 
     99 H          -0.528824   10.315966   -2.990567 H         1 <1>         0.030466 
    100 H          -1.779761   10.254171   -1.714264 H         1 <1>         0.030466 
    101 H          -2.842626   10.768023   -3.891389 H         1 <1>         0.023270 
    102 H          -2.977979   12.189663   -2.812201 H         1 <1>         0.023270 
    103 H          -1.761526   12.173465   -4.127630 H         1 <1>         0.023270 
@<TRIPOS>BOND
     1    1    2 1    
     2    1    6 1    
     3    1   11 1    
     4    1   48 1    
     5    2    3 1    
     6    2    7 1    
     7    2   49 1    
     8    3    4 1    
     9    3    9 1    
    10    3   50 1    
    11    4    5 1    
    12    4    8 1    
    13    4   51 1    
    14    5    6 1    
    15    5   10 1    
    16    5   52 1    
    17    7   53 1    
    18    8   54 1    
    19    9   55 1    
    20   10   24 1    
    21   11   12 1    
    22   11   56 1    
    23   11   57 1    
    24   12   13 1    
    25   13   14 1    
    26   13   18 1    
    27   13   58 1    
    28   14   15 1    
    29   15   16 1    
    30   15   20 1    
    31   15   59 1    
    32   16   17 1    
    33   16   22 1    
    34   16   60 1    
    35   17   18 1    
    36   17   19 1    
    37   17   61 1    
    38   18   21 1    
    39   18   62 1    
    40   19   63 1    
    41   20   23 1    
    42   20   64 1    
    43   20   65 1    
    44   21   66 1    
    45   22   67 1    
    46   23   68 1    
    47   24   25 1    
    48   24   69 1    
    49   24   70 1    
    50   25   26 1    
    51   25   27 1    
    52   25   71 1    
    53   26   72 1    
    54   27   28 1    
    55   27   73 1    
    56   27   74 1    
    57   28   29 1    
    58   29   30 1    
    59   29   31 2    
    60   30   32 1    
    61   30   75 1    
    62   30   76 1    
    63   32   33 1    
    64   32   77 1    
    65   32   78 1    
    66   33   34 1    
    67   33   79 1    
    68   33   80 1    
    69   34   35 1    
    70   34   81 1    
    71   34   82 1    
    72   35   36 1    
    73   35   83 1    
    74   35   84 1    
    75   36   37 1    
    76   36   85 1    
    77   36   86 1    
    78   37   38 1    
    79   37   87 1    
    80   37   88 1    
    81   38   39 2    
    82   38   89 1    
    83   39   40 1    
    84   39   90 1    
    85   40   41 1    
    86   40   91 1    
    87   40   92 1    
    88   41   42 2    
    89   41   93 1    
    90   42   43 1    
    91   42   94 1    
    92   43   44 1    
    93   43   95 1    
    94   43   96 1    
    95   44   45 2    
    96   44   97 1    
    97   45   46 1    
    98   45   98 1    
    99   46   47 1    
   100   46   99 1    
   101   46  100 1    
   102   47  101 1    
   103   47  102 1    
   104   47  103 1    
@<TRIPOS>SUBSTRUCTURE
     1 ****        1 TEMP              0 ****  ****    0 ROOT 
@<TRIPOS>NORMAL
@<TRIPOS>FF_PBC
FORCE_FIELD_SETUP_FEATURE Force Field Setup information
v1.0  0 0.000000 0.000000 0.000000 0.000000 0.000000 0.000000 NONE 0 0 0 0 1 0 0 0 0 0 0 0 0
