@<TRIPOS>MOLECULE
MOL002121
   39    40     1     1     0
SMALL
GASTEIGER


@<TRIPOS>ATOM
      1 C          -1.473504    1.718146    0.730922 C.2       1 <1>        -0.084727 
      2 C          -2.901674    1.313676    0.414926 C.3       1 <1>        -0.030839 
      3 C          -2.876682    0.334160   -0.797167 C.3       1 <1>        -0.028554 
      4 C          -1.773052   -0.675292   -0.536691 C.2       1 <1>        -0.075952 
      5 C          -0.517789   -0.398442   -0.931580 C.2       1 <1>        -0.081126 
      6 C          -0.647335    1.179009    1.647467 C.2       1 <1>        -0.076511 
      7 C           0.704200   -1.214936   -0.582694 C.3       1 <1>        -0.013902 
      8 C           1.646348   -0.408638    0.366614 C.3       1 <1>        -0.028288 
      9 C           1.617356    1.146882    0.499132 C.3       1 <1>        -0.045473 
     10 C           0.793185    1.646269    1.721421 C.3       1 <1>        -0.031719 
     11 C          -2.179859   -1.930952    0.204844 C.3       1 <1>        -0.043769 
     12 C          -1.009699    0.094722    2.642034 C.3       1 <1>        -0.043787 
     13 C           2.180157   -0.947936   -0.985987 C.3       1 <1>        -0.024979 
     14 C           3.145554   -2.158642   -0.865112 C.3       1 <1>        -0.058998 
     15 C           2.479754    0.006571   -2.175103 C.3       1 <1>        -0.058998 
     16 H          -1.080250    2.517422    0.100990 H         1 <1>         0.057163 
     17 H          -3.492118    2.208800    0.159091 H         1 <1>         0.031044 
     18 H          -3.410276    0.843854    1.266477 H         1 <1>         0.031044 
     19 H          -3.854818   -0.153955   -0.935993 H         1 <1>         0.031285 
     20 H          -2.673372    0.909241   -1.715404 H         1 <1>         0.031285 
     21 H          -0.385354    0.501835   -1.523243 H         1 <1>         0.057458 
     22 H           0.545295   -2.258982   -0.277378 H         1 <1>         0.035115 
     23 H           1.992402   -0.960528    1.254910 H         1 <1>         0.031202 
     24 H           2.663276    1.466257    0.636831 H         1 <1>         0.027131 
     25 H           1.244125    1.666677   -0.390503 H         1 <1>         0.027131 
     26 H           1.276798    1.287683    2.644760 H         1 <1>         0.030998 
     27 H           0.815248    2.748271    1.755164 H         1 <1>         0.030998 
     28 H          -2.367979   -2.723670   -0.533971 H         1 <1>         0.027436 
     29 H          -3.104542   -1.773787    0.779908 H         1 <1>         0.027436 
     30 H          -1.416279   -2.281364    0.911274 H         1 <1>         0.027436 
     31 H          -0.928447    0.512812    3.656441 H         1 <1>         0.027436 
     32 H          -2.014598   -0.326677    2.542685 H         1 <1>         0.027436 
     33 H          -0.292898   -0.734483    2.553314 H         1 <1>         0.027436 
     34 H           4.175450   -1.783926   -0.768556 H         1 <1>         0.023525 
     35 H           3.073789   -2.770260   -1.776804 H         1 <1>         0.023525 
     36 H           2.927834   -2.803773   -0.000319 H         1 <1>         0.023525 
     37 H           3.386760    0.582307   -1.938563 H         1 <1>         0.023525 
     38 H           1.681509    0.707115   -2.441995 H         1 <1>         0.023525 
     39 H           2.681440   -0.603540   -3.067927 H         1 <1>         0.023525 
@<TRIPOS>BOND
     1    1    2 1    
     2    1    6 2    
     3    1   16 1    
     4    2    3 1    
     5    2   17 1    
     6    2   18 1    
     7    3    4 1    
     8    3   19 1    
     9    3   20 1    
    10    4    5 2    
    11    4   11 1    
    12    5    7 1    
    13    5   21 1    
    14    6   10 1    
    15    6   12 1    
    16    7    8 1    
    17    7   13 1    
    18    7   22 1    
    19    8    9 1    
    20    8   13 1    
    21    8   23 1    
    22    9   10 1    
    23    9   24 1    
    24    9   25 1    
    25   10   26 1    
    26   10   27 1    
    27   11   28 1    
    28   11   29 1    
    29   11   30 1    
    30   12   31 1    
    31   12   32 1    
    32   12   33 1    
    33   13   14 1    
    34   13   15 1    
    35   14   34 1    
    36   14   35 1    
    37   14   36 1    
    38   15   37 1    
    39   15   38 1    
    40   15   39 1    
@<TRIPOS>SUBSTRUCTURE
     1 ****        1 TEMP              0 ****  ****    0 ROOT 
@<TRIPOS>NORMAL
@<TRIPOS>FF_PBC
FORCE_FIELD_SETUP_FEATURE Force Field Setup information
v1.0  0 0.000000 0.000000 0.000000 0.000000 0.000000 0.000000 NONE 0 0 0 0 1 0 0 0 0 0 0 0 0
