@<TRIPOS>MOLECULE
MOL001556
   39    40     1     1     0
SMALL
GASTEIGER


@<TRIPOS>ATOM
      1 C          -0.640981   -0.470736    0.294399 C.3       1 <1>        -0.029054 
      2 C          -0.659308    1.022010    0.688888 C.3       1 <1>        -0.016326 
      3 C          -2.145613   -0.573400    0.675136 C.3       1 <1>        -0.030957 
      4 C           0.393066   -1.374969    1.023986 C.3       1 <1>        -0.045500 
      5 C          -2.213521    0.979451    0.658902 C.3       1 <1>        -0.040797 
      6 C           0.135895    1.899548   -0.265191 C.2       1 <1>        -0.072939 
      7 C          -3.028440   -1.274240   -0.393531 C.3       1 <1>        -0.059523 
      8 C          -2.427200   -1.131798    2.098464 C.3       1 <1>        -0.059523 
      9 C           1.860616   -0.976925    0.688017 C.3       1 <1>        -0.031719 
     10 C           1.486623    2.382548    0.216971 C.3       1 <1>        -0.028282 
     11 C          -0.278732    2.242740   -1.492706 C.2       1 <1>        -0.099165 
     12 C           2.079401   -0.745879   -0.792843 C.2       1 <1>        -0.076511 
     13 C           2.657187    1.757415   -0.601817 C.3       1 <1>        -0.030830 
     14 C           2.397291    0.447664   -1.326857 C.2       1 <1>        -0.084727 
     15 C           1.925081   -1.974404   -1.670488 C.3       1 <1>        -0.043787 
     16 H          -0.537885   -0.554791   -0.799581 H         1 <1>         0.031176 
     17 H          -0.357490    1.147826    1.741751 H         1 <1>         0.034853 
     18 H           0.201668   -2.414988    0.715860 H         1 <1>         0.027130 
     19 H           0.276947   -1.330362    2.117300 H         1 <1>         0.027130 
     20 H          -2.704973    1.435803    1.533644 H         1 <1>         0.027630 
     21 H          -2.669522    1.361778   -0.264278 H         1 <1>         0.027630 
     22 H          -2.792699   -2.348887   -0.417419 H         1 <1>         0.023508 
     23 H          -4.091517   -1.148649   -0.139547 H         1 <1>         0.023508 
     24 H          -2.862700   -0.857778   -1.398407 H         1 <1>         0.023508 
     25 H          -3.495893   -1.014985    2.334043 H         1 <1>         0.023508 
     26 H          -1.854687   -0.602475    2.874718 H         1 <1>         0.023508 
     27 H          -2.178543   -2.203152    2.138310 H         1 <1>         0.023508 
     28 H           2.537625   -1.778237    1.025340 H         1 <1>         0.030998 
     29 H           2.127311   -0.086612    1.270374 H         1 <1>         0.030998 
     30 H           1.509979    3.481938    0.129575 H         1 <1>         0.031295 
     31 H           1.632789    2.181165    1.288155 H         1 <1>         0.031295 
     32 H          -1.219710    1.917759   -1.927235 H         1 <1>         0.053449 
     33 H           0.344513    2.875849   -2.123313 H         1 <1>         0.053449 
     34 H           2.938278    2.493557   -1.375068 H         1 <1>         0.031044 
     35 H           3.546634    1.634119    0.036921 H         1 <1>         0.031044 
     36 H           2.499815    0.494246   -2.412347 H         1 <1>         0.057163 
     37 H           2.154119   -1.784786   -2.729519 H         1 <1>         0.027436 
     38 H           2.614748   -2.755559   -1.318997 H         1 <1>         0.027436 
     39 H           0.901780   -2.370727   -1.622209 H         1 <1>         0.027436 
@<TRIPOS>BOND
     1    1    2 1    
     2    1    3 1    
     3    1    4 1    
     4    1   16 1    
     5    2    5 1    
     6    2    6 1    
     7    2   17 1    
     8    3    5 1    
     9    3    7 1    
    10    3    8 1    
    11    4    9 1    
    12    4   18 1    
    13    4   19 1    
    14    5   20 1    
    15    5   21 1    
    16    6   10 1    
    17    6   11 2    
    18    7   22 1    
    19    7   23 1    
    20    7   24 1    
    21    8   25 1    
    22    8   26 1    
    23    8   27 1    
    24    9   12 1    
    25    9   28 1    
    26    9   29 1    
    27   10   13 1    
    28   10   30 1    
    29   10   31 1    
    30   11   32 1    
    31   11   33 1    
    32   12   14 2    
    33   12   15 1    
    34   13   14 1    
    35   13   34 1    
    36   13   35 1    
    37   14   36 1    
    38   15   37 1    
    39   15   38 1    
    40   15   39 1    
@<TRIPOS>SUBSTRUCTURE
     1 ****        1 TEMP              0 ****  ****    0 ROOT 
@<TRIPOS>NORMAL
@<TRIPOS>FF_PBC
FORCE_FIELD_SETUP_FEATURE Force Field Setup information
v1.0  0 0.000000 0.000000 0.000000 0.000000 0.000000 0.000000 NONE 0 0 0 0 1 0 0 0 0 0 0 0 0
