@<TRIPOS>MOLECULE
MOL007548
   42    43     1     1     0
SMALL
GASTEIGER


@<TRIPOS>ATOM
      1 C           1.991031    0.902693   -0.313779 C.3       1 <1>         0.070018 
      2 C           3.308805    0.090814   -0.147663 C.3       1 <1>        -0.023674 
      3 C           3.180854   -1.395800   -0.569573 C.3       1 <1>        -0.049938 
      4 C           2.029302   -2.087241    0.211321 C.3       1 <1>        -0.046897 
      5 C           0.659058   -1.363410    0.039526 C.3       1 <1>        -0.022906 
      6 C          -0.354897   -1.944046    1.074461 C.3       1 <1>        -0.043296 
      7 C          -1.747956   -1.277890    0.919556 C.3       1 <1>        -0.030975 
      8 C          -1.685481    0.204193    0.617328 C.2       1 <1>        -0.070491 
      9 C          -0.525855    0.839260    0.386228 C.2       1 <1>        -0.078203 
     10 C           0.821070    0.149034    0.405351 C.3       1 <1>         0.011341 
     11 O           2.277461    2.135288    0.382088 O.3       1 <1>        -0.388249 
     12 C          -3.096591    2.027871    1.675635 C.3       1 <1>        -0.058954 
     13 C          -3.018248    0.933062    0.577809 C.3       1 <1>        -0.025554 
     14 C          -3.289449    1.518858   -0.834451 C.3       1 <1>        -0.058954 
     15 C           0.081040   -1.622128   -1.391546 C.3       1 <1>        -0.058926 
     16 C           1.723169    1.277256   -1.800905 C.3       1 <1>        -0.035507 
     17 H           4.117058    0.575014   -0.719761 H         1 <1>         0.029292 
     18 H           3.600180    0.112992    0.915906 H         1 <1>         0.029292 
     19 H           3.047205   -1.473060   -1.657169 H         1 <1>         0.026634 
     20 H           4.126994   -1.913179   -0.334279 H         1 <1>         0.026634 
     21 H           1.939871   -3.136203   -0.115499 H         1 <1>         0.027072 
     22 H           2.308446   -2.093763    1.277888 H         1 <1>         0.027072 
     23 H          -0.453429   -3.036734    0.963302 H         1 <1>         0.027373 
     24 H           0.006488   -1.762688    2.100492 H         1 <1>         0.027373 
     25 H          -2.325665   -1.445951    1.843521 H         1 <1>         0.031024 
     26 H          -2.296372   -1.757321    0.092944 H         1 <1>         0.031024 
     27 H          -0.558797    1.906278    0.185480 H         1 <1>         0.057558 
     28 H           1.121342    0.203581    1.464827 H         1 <1>         0.037608 
     29 H           1.583587    2.783124    0.351310 H         1 <1>         0.210172 
     30 H          -4.102244    2.476423    1.695912 H         1 <1>         0.023536 
     31 H          -2.892901    1.582365    2.661977 H         1 <1>         0.023536 
     32 H          -2.366789    2.831025    1.497142 H         1 <1>         0.023536 
     33 H          -3.832977    0.215819    0.782904 H         1 <1>         0.034025 
     34 H          -3.219616    0.720264   -1.589753 H         1 <1>         0.023536 
     35 H          -4.300019    1.954350   -0.879419 H         1 <1>         0.023536 
     36 H          -2.565823    2.306188   -1.091241 H         1 <1>         0.023536 
     37 H          -0.704367   -0.898178   -1.651746 H         1 <1>         0.023526 
     38 H           0.831343   -1.589866   -2.185496 H         1 <1>         0.023526 
     39 H          -0.356078   -2.630809   -1.444900 H         1 <1>         0.023526 
     40 H           0.734892    1.744542   -1.917026 H         1 <1>         0.025740 
     41 H           1.785407    0.425059   -2.483227 H         1 <1>         0.025740 
     42 H           2.481918    2.004529   -2.128459 H         1 <1>         0.025740 
@<TRIPOS>BOND
     1    1    2 1    
     2    1   10 1    
     3    1   11 1    
     4    1   16 1    
     5    2    3 1    
     6    2   17 1    
     7    2   18 1    
     8    3    4 1    
     9    3   19 1    
    10    3   20 1    
    11    4    5 1    
    12    4   21 1    
    13    4   22 1    
    14    5    6 1    
    15    5   10 1    
    16    5   15 1    
    17    6    7 1    
    18    6   23 1    
    19    6   24 1    
    20    7    8 1    
    21    7   25 1    
    22    7   26 1    
    23    8    9 2    
    24    8   13 1    
    25    9   10 1    
    26    9   27 1    
    27   10   28 1    
    28   11   29 1    
    29   13   12 1    
    30   12   30 1    
    31   12   31 1    
    32   12   32 1    
    33   13   14 1    
    34   13   33 1    
    35   14   34 1    
    36   14   35 1    
    37   14   36 1    
    38   15   37 1    
    39   15   38 1    
    40   15   39 1    
    41   16   40 1    
    42   16   41 1    
    43   16   42 1    
@<TRIPOS>SUBSTRUCTURE
     1 ****        1 TEMP              0 ****  ****    0 ROOT 
@<TRIPOS>NORMAL
@<TRIPOS>FF_PBC
FORCE_FIELD_SETUP_FEATURE Force Field Setup information
v1.0  0 0.000000 0.000000 0.000000 0.000000 0.000000 0.000000 NONE 0 0 0 0 1 0 0 0 0 0 0 0 0
