@<TRIPOS>MOLECULE
MOL000783
   76    80     1     1     0
SMALL
GASTEIGER


@<TRIPOS>ATOM
      1 C           2.865926   -2.196720   -0.562793 C.ar      1 <1>         0.212255 
      2 N           1.623914   -2.483983   -0.643200 N.ar      1 <1>        -0.204072 
      3 C           1.410597   -3.729378   -0.887983 C.ar      1 <1>         0.216192 
      4 C           2.727171   -4.393604   -1.044431 C.ar      1 <1>         0.054814 
      5 C           3.641472   -3.440097   -0.808210 C.ar      1 <1>         0.034118 
      6 C           2.437895   -6.892250   -0.863545 C.2       1 <1>        -0.097917 
      7 C           3.059215   -5.831616   -1.387169 C.2       1 <1>        -0.054950 
      8 C           5.158894   -3.677427   -0.797626 C.3       1 <1>        -0.032704 
      9 C           3.419406   -0.989065   -0.313523 C.ar      1 <1>         0.035588 
     10 N           1.457275    0.525524    0.065042 N.ar      1 <1>        -0.246887 
     11 C           2.706555    0.284713   -0.030338 C.ar      1 <1>         0.073983 
     12 C           3.504165    1.543994    0.201144 C.2       1 <1>        -0.019672 
     13 C           2.602833    2.502357    0.428525 C.2       1 <1>        -0.016389 
     14 C           1.271805    1.774983    0.336689 C.ar      1 <1>         0.074251 
     15 C           5.017382    1.653629    0.174606 C.3       1 <1>        -0.037371 
     16 C           0.220825   -4.363983   -0.990901 C.ar      1 <1>         0.035925 
     17 C          -2.375926   -4.566914   -0.740082 C.2       1 <1>        -0.015724 
     18 C          -1.106668   -3.744617   -0.747348 C.ar      1 <1>         0.074306 
     19 N          -1.361488   -2.511813   -0.509215 N.ar      1 <1>        -0.246559 
     20 C          -2.620133   -2.376061   -0.300880 C.ar      1 <1>         0.078181 
     21 C          -3.340205   -3.694028   -0.467630 C.2       1 <1>         0.004946 
     22 C          -2.569183   -6.048293   -0.978431 C.3       1 <1>        -0.037069 
     23 C          -4.784650   -3.958506   -0.338264 C.2       1 <1>        -0.059351 
     24 C          -5.721479   -3.296115   -1.024121 C.2       1 <1>        -0.098062 
     25 C          -3.289539   -1.256349    0.048978 C.ar      1 <1>         0.035897 
     26 N          -1.476276    0.436944    0.366673 N.ar      1 <1>        -0.204340 
     27 C          -1.278128    1.714006    0.452551 C.ar      1 <1>         0.212213 
     28 C          -2.513057    2.315238    0.480096 C.ar      1 <1>         0.033420 
     29 C          -3.460409    1.196825    0.304291 C.ar      1 <1>         0.030151 
     30 C          -2.700917    0.093913    0.235296 C.ar      1 <1>         0.211951 
     31 C          -4.994173    1.262813    0.210364 C.3       1 <1>        -0.033011 
     32 C           0.061551    2.370457    0.520611 C.ar      1 <1>         0.035596 
     33 C           3.024632    3.934931    0.706123 C.3       1 <1>        -0.016369 
     34 C          -3.030512    3.756578    0.636019 C.3       1 <1>        -0.012016 
     35 C           2.065909    5.152904    0.758945 C.3       1 <1>         0.037046 
     36 C           2.842887    6.435606    0.954854 C.2       1 <1>         0.259902 
     37 C          -2.074812    4.902738    1.053867 C.3       1 <1>         0.037194 
     38 C          -2.823626    6.175706    1.357144 C.2       1 <1>         0.259904 
     39 O           2.111509    7.549013    1.042022 O.3       1 <1>        -0.331260 
     40 O          -2.080634    7.162262    1.855741 O.3       1 <1>        -0.331260 
     41 O           4.061680    6.453081    1.033389 O.2       1 <1>        -0.265166 
     42 O          -4.022360    6.297661    1.163090 O.2       1 <1>        -0.265166 
     43 H           0.915018   -1.780606   -0.738959 H         1 <1>         0.453467 
     44 H           2.734308   -7.895498   -1.171153 H         1 <1>         0.053501 
     45 H           1.649641   -6.802307   -0.123223 H         1 <1>         0.053501 
     46 H           3.869712   -5.998934   -2.098076 H         1 <1>         0.061985 
     47 H           5.730916   -2.846439   -0.364624 H         1 <1>         0.027983 
     48 H           5.374370   -4.571144   -0.194546 H         1 <1>         0.027983 
     49 H           5.509479   -3.848096   -1.825890 H         1 <1>         0.027983 
     50 H           4.499260   -0.937617   -0.323545 H         1 <1>         0.070490 
     51 H           5.456246    0.890969    0.829796 H         1 <1>         0.027827 
     52 H           5.362652    1.491442   -0.853709 H         1 <1>         0.027827 
     53 H           5.388432    2.621160    0.520026 H         1 <1>         0.027827 
     54 H           0.227898   -5.404214   -1.266406 H         1 <1>         0.070501 
     55 H          -1.821321   -6.460281   -1.667488 H         1 <1>         0.027837 
     56 H          -2.508256   -6.574076   -0.017167 H         1 <1>         0.027837 
     57 H          -3.560532   -6.222044   -1.416897 H         1 <1>         0.027837 
     58 H          -5.079368   -4.748575    0.354956 H         1 <1>         0.061839 
     59 H          -6.772633   -3.543533   -0.878020 H         1 <1>         0.053500 
     60 H          -5.476774   -2.510212   -1.745016 H         1 <1>         0.053500 
     61 H          -4.357475   -1.355195    0.215916 H         1 <1>         0.070500 
     62 H          -0.769534   -0.227700    0.625017 H         1 <1>         0.453458 
     63 H          -5.323074    0.788135   -0.726353 H         1 <1>         0.027973 
     64 H          -5.373948    2.293432    0.217155 H         1 <1>         0.027973 
     65 H          -5.437309    0.726687    1.063230 H         1 <1>         0.027973 
     66 H           0.080237    3.416264    0.735928 H         1 <1>         0.070490 
     67 H           3.567888    3.914194    1.667391 H         1 <1>         0.031872 
     68 H           3.742653    4.186414   -0.094797 H         1 <1>         0.031872 
     69 H          -3.797033    3.698692    1.427568 H         1 <1>         0.032019 
     70 H          -3.530022    4.033756   -0.307028 H         1 <1>         0.032019 
     71 H           1.495185    5.234411   -0.180987 H         1 <1>         0.036922 
     72 H           1.378608    5.078776    1.616845 H         1 <1>         0.036922 
     73 H          -1.372354    5.135644    0.238731 H         1 <1>         0.036923 
     74 H          -1.522935    4.625130    1.963690 H         1 <1>         0.036923 
     75 H           2.657597    8.319460    1.174881 H         1 <1>         0.220208 
     76 H          -2.592959    7.944947    2.038389 H         1 <1>         0.220208 
@<TRIPOS>BOND
     1    2    1 1    
     2    5    1 1    
     3    1    9 2    
     4    3    2 1    
     5    2   43 1    
     6    3    4 1    
     7   16    3 2    
     8    4    5 2    
     9    4    7 1    
    10    5    8 1    
    11    7    6 2    
    12    6   44 1    
    13    6   45 1    
    14    7   46 1    
    15    8   47 1    
    16    8   48 1    
    17    8   49 1    
    18    9   11 1    
    19    9   50 1    
    20   11   10 2    
    21   10   14 1    
    22   11   12 1    
    23   12   13 2    
    24   12   15 1    
    25   13   14 1    
    26   13   33 1    
    27   14   32 2    
    28   15   51 1    
    29   15   52 1    
    30   15   53 1    
    31   18   16 1    
    32   16   54 1    
    33   17   18 1    
    34   21   17 2    
    35   17   22 1    
    36   19   18 2    
    37   20   19 1    
    38   20   21 1    
    39   25   20 2    
    40   21   23 1    
    41   22   55 1    
    42   22   56 1    
    43   22   57 1    
    44   23   24 2    
    45   23   58 1    
    46   24   59 1    
    47   24   60 1    
    48   30   25 1    
    49   25   61 1    
    50   26   27 1    
    51   26   30 1    
    52   26   62 1    
    53   27   28 2    
    54   27   32 1    
    55   28   29 1    
    56   28   34 1    
    57   29   30 2    
    58   29   31 1    
    59   31   63 1    
    60   31   64 1    
    61   31   65 1    
    62   32   66 1    
    63   33   35 1    
    64   33   67 1    
    65   33   68 1    
    66   34   37 1    
    67   34   69 1    
    68   34   70 1    
    69   35   36 1    
    70   35   71 1    
    71   35   72 1    
    72   36   39 1    
    73   36   41 2    
    74   37   38 1    
    75   37   73 1    
    76   37   74 1    
    77   38   40 1    
    78   38   42 2    
    79   39   75 1    
    80   40   76 1    
@<TRIPOS>SUBSTRUCTURE
     1 ****       26 TEMP              0 ****  ****    0 ROOT 
@<TRIPOS>NORMAL
@<TRIPOS>FF_PBC
FORCE_FIELD_SETUP_FEATURE Force Field Setup information
v1.0  0 0.000000 0.000000 0.000000 0.000000 0.000000 0.000000 NONE 0 0 0 0 1 0 0 0 0 0 0 0 0
