@<TRIPOS>MOLECULE
MOL000105
   17    17     1     1     0
SMALL
GASTEIGER


@<TRIPOS>ATOM
      1 C           1.259082    2.234519   -0.000000 C.2       1 <1>         0.291319 
      2 C           0.535000    0.904493    0.000000 C.ar      1 <1>         0.048868 
      3 C          -0.863400    0.857501   -0.000000 C.ar      1 <1>        -0.016543 
      4 C          -1.534422   -0.367902   -0.000000 C.ar      1 <1>         0.102930 
      5 O          -2.931428   -0.382912    0.000000 O.3       1 <1>        -0.357260 
      6 C          -0.808023   -1.565040    0.000000 C.ar      1 <1>         0.102225 
      7 O          -1.502328   -2.780513   -0.000000 O.3       1 <1>        -0.357274 
      8 C           0.591730   -1.523109   -0.000000 C.ar      1 <1>        -0.028668 
      9 C           1.257828   -0.293705    0.000000 C.ar      1 <1>        -0.046288 
     10 O           0.618104    3.274397    0.000000 O.2       1 <1>        -0.259428 
     11 O           2.594641    2.262149   -0.000000 O.3       1 <1>        -0.327489 
     12 H          -1.445173    1.773060    0.000000 H         1 <1>         0.065179 
     13 H          -3.276276   -1.270927    0.000000 H         1 <1>         0.217422 
     14 H          -0.948269   -3.553192    0.000000 H         1 <1>         0.217422 
     15 H           1.170009   -2.441538   -0.000000 H         1 <1>         0.064423 
     16 H           2.343370   -0.275396    0.000000 H         1 <1>         0.062608 
     17 H           2.938555    3.149113   -0.000000 H         1 <1>         0.220555 
@<TRIPOS>BOND
     1    1    2 1    
     2    1   10 2    
     3    1   11 1    
     4    2    3 ar   
     5    2    9 ar   
     6    3    4 ar   
     7    3   12 1    
     8    4    5 1    
     9    4    6 ar   
    10    5   13 1    
    11    6    7 1    
    12    6    8 ar   
    13    7   14 1    
    14    8    9 ar   
    15    8   15 1    
    16    9   16 1    
    17   11   17 1    
@<TRIPOS>SUBSTRUCTURE
     1 ****        1 TEMP              0 ****  ****    0 ROOT 
@<TRIPOS>NORMAL
@<TRIPOS>FF_PBC
FORCE_FIELD_SETUP_FEATURE Force Field Setup information
v1.0  0 0.000000 0.000000 0.000000 0.000000 0.000000 0.000000 NONE 0 0 0 0 1 0 0 0 0 0 0 0 0
