@<TRIPOS>MOLECULE
MOL004820
   41    44     1     1     0
SMALL
GASTEIGER


@<TRIPOS>ATOM
      1 O           0.490696    1.212971    0.151845 O.3       1 <1>        -0.272658 
      2 O           2.400090    1.879624   -0.700454 O.2       1 <1>        -0.258804 
      3 O           2.488689    1.145110   -3.321130 O.3       1 <1>        -0.359141 
      4 O           6.638712   -1.239370   -4.274957 O.3       1 <1>        -0.359750 
      5 C          -2.370098   -1.896157    0.871609 C.ar      1 <1>        -0.030340 
      6 C          -2.730356   -0.477232    1.113925 C.ar      1 <1>         0.086920 
      7 C          -1.095586   -2.225398    0.370512 C.ar      1 <1>        -0.049615 
      8 C          -0.111018   -1.155244    0.073289 C.ar      1 <1>         0.007084 
      9 C          -1.774558    0.524301    0.881721 C.ar      1 <1>         0.035940 
     10 C          -0.429129    0.184792    0.365280 C.ar      1 <1>         0.103174 
     11 C           1.216811   -1.449599   -0.582981 C.2       1 <1>        -0.038546 
     12 C           2.005091   -0.411905   -0.895280 C.2       1 <1>         0.057065 
     13 C           1.639272    0.952563   -0.476649 C.2       1 <1>         0.299476 
     14 C           3.260042   -0.614257   -1.713854 C.ar      1 <1>         0.017744 
     15 C           3.429563    0.184682   -2.955184 C.ar      1 <1>         0.082884 
     16 C           4.234573   -1.545038   -1.345913 C.ar      1 <1>        -0.048954 
     17 C           4.528823   -0.025925   -3.784197 C.ar      1 <1>        -0.001570 
     18 C           5.415287   -1.759063   -2.219682 C.ar      1 <1>        -0.031201 
     19 C           5.554502   -1.033001   -3.419240 C.ar      1 <1>         0.075055 
     20 O          -4.017208   -0.139827    1.549825 O.3       1 <1>        -0.334124 
     21 C          -4.149555    1.069689    2.321972 C.3       1 <1>         0.088837 
     22 C          -2.157576    1.960779    1.140340 C.2       1 <1>        -0.050859 
     23 C          -3.290866    2.201828    1.797366 C.2       1 <1>        -0.051916 
     24 C          -3.733413    0.781998    3.794198 C.3       1 <1>        -0.031936 
     25 C          -5.635166    1.501227    2.205565 C.3       1 <1>        -0.031936 
     26 H           2.506151    1.881123   -2.716596 H         1 <1>         0.217339 
     27 H           7.189687   -1.981365   -4.050489 H         1 <1>         0.217315 
     28 H          -3.098825   -2.676611    1.087349 H         1 <1>         0.064367 
     29 H          -0.824194   -3.258287    0.193451 H         1 <1>         0.062504 
     30 H           1.494758   -2.472644   -0.836969 H         1 <1>         0.063214 
     31 H           4.124805   -2.118984   -0.432086 H         1 <1>         0.062523 
     32 H           4.625097    0.549660   -4.698399 H         1 <1>         0.066920 
     33 H           6.164728   -2.486789   -1.912197 H         1 <1>         0.064340 
     34 H          -1.510899    2.765722    0.789193 H         1 <1>         0.062283 
     35 H          -3.571502    3.240228    1.978513 H         1 <1>         0.060053 
     36 H          -4.581595    0.393171    4.376150 H         1 <1>         0.026052 
     37 H          -3.363404    1.691615    4.293406 H         1 <1>         0.026052 
     38 H          -2.932273    0.029538    3.823053 H         1 <1>         0.026052 
     39 H          -5.874929    1.701821    1.151439 H         1 <1>         0.026052 
     40 H          -6.299179    0.700339    2.555745 H         1 <1>         0.026052 
     41 H          -5.834210    2.410174    2.793439 H         1 <1>         0.026052 
@<TRIPOS>BOND
     1    1   10 1    
     2   13    1 1    
     3   13    2 2    
     4   15    3 1    
     5    3   26 1    
     6   19    4 1    
     7    4   27 1    
     8    5    6 1    
     9    7    5 2    
    10    5   28 1    
    11    9    6 2    
    12    6   20 1    
    13    8    7 1    
    14    7   29 1    
    15    8   10 2    
    16   11    8 1    
    17   10    9 1    
    18    9   22 1    
    19   12   11 2    
    20   11   30 1    
    21   12   13 1    
    22   14   12 1    
    23   15   14 1    
    24   14   16 2    
    25   17   15 2    
    26   16   18 1    
    27   16   31 1    
    28   17   19 1    
    29   17   32 1    
    30   18   19 2    
    31   18   33 1    
    32   20   21 1    
    33   21   23 1    
    34   21   24 1    
    35   21   25 1    
    36   22   23 2    
    37   22   34 1    
    38   23   35 1    
    39   24   36 1    
    40   24   37 1    
    41   24   38 1    
    42   25   39 1    
    43   25   40 1    
    44   25   41 1    
@<TRIPOS>SUBSTRUCTURE
     1 ****        5 TEMP              0 ****  ****    0 ROOT 
@<TRIPOS>NORMAL
@<TRIPOS>FF_PBC
FORCE_FIELD_SETUP_FEATURE Force Field Setup information
v1.0  0 0.000000 0.000000 0.000000 0.000000 0.000000 0.000000 NONE 0 0 0 0 1 0 0 0 0 0 0 0 0
