@<TRIPOS>MOLECULE
MOL004653
   57    59     1     1     0
SMALL
GASTEIGER


@<TRIPOS>ATOM
      1 C           0.151396    1.828652   -1.367292 C.2       1 <1>         0.289851 
      2 C           0.126882    3.162195   -0.717635 C.2       1 <1>         0.016847 
      3 C          -0.601339    3.339041    0.398844 C.2       1 <1>        -0.078524 
      4 C          -0.736905    4.621740    1.187446 C.3       1 <1>        -0.046099 
      5 O           0.834455    1.658130   -2.365297 O.2       1 <1>        -0.259577 
      6 O          -0.580669    0.829517   -0.854451 O.3       1 <1>        -0.300728 
      7 C           0.924262    4.298178   -1.322237 C.3       1 <1>        -0.034348 
      8 C          -4.435392    0.798464   -1.400157 C.2       1 <1>         0.291588 
      9 C          -5.528438    0.007580   -0.805772 C.2       1 <1>         0.010952 
     10 C          -5.293586   -1.186538   -0.256549 C.2       1 <1>        -0.046433 
     11 C          -3.873450   -1.697041   -0.261906 C.ar      1 <1>         0.006280 
     12 C          -3.536496   -3.015113    0.325554 C.ar      1 <1>        -0.049651 
     13 C          -2.209627   -3.470901    0.301922 C.ar      1 <1>        -0.030579 
     14 C          -1.141405   -2.641275   -0.300735 C.ar      1 <1>         0.085243 
     15 C          -1.457758   -1.364567   -0.854160 C.ar      1 <1>         0.045432 
     16 C          -2.863050   -0.889827   -0.843799 C.ar      1 <1>         0.101760 
     17 O          -3.174999    0.349177   -1.413660 O.3       1 <1>        -0.273346 
     18 C           1.063271   -2.569497   -1.283492 C.3       1 <1>         0.099821 
     19 C           1.044294   -1.012300   -1.164286 C.3       1 <1>         0.128025 
     20 C          -0.381436   -0.464515   -1.464936 C.3       1 <1>         0.127453 
     21 O           0.165017   -3.125647   -0.310937 O.3       1 <1>        -0.335700 
     22 O          -4.681854    1.886590   -1.893155 O.2       1 <1>        -0.259479 
     23 O           1.325945   -0.556692    0.181818 O.3       1 <1>        -0.302495 
     24 C           2.615621   -0.370654    0.501887 C.2       1 <1>         0.289639 
     25 C           2.969559    0.067994    1.873918 C.2       1 <1>         0.016837 
     26 C           1.991455    0.434339    2.720775 C.2       1 <1>        -0.078524 
     27 C           2.170359    0.911060    4.144240 C.3       1 <1>        -0.046099 
     28 O           3.505909   -0.541084   -0.316405 O.2       1 <1>        -0.259586 
     29 C           4.423826    0.095219    2.293433 C.3       1 <1>        -0.034348 
     30 C           2.457462   -3.167477   -0.950307 C.3       1 <1>        -0.033012 
     31 C           0.645635   -3.049728   -2.704891 C.3       1 <1>        -0.033012 
     32 H          -1.164220    2.498368    0.808826 H         1 <1>         0.057367 
     33 H          -0.174526    5.471826    0.778645 H         1 <1>         0.027190 
     34 H          -1.799836    4.905022    1.225412 H         1 <1>         0.027190 
     35 H          -0.385587    4.445387    2.215545 H         1 <1>         0.027190 
     36 H           0.250600    5.124610   -1.594658 H         1 <1>         0.027926 
     37 H           1.463469    3.997835   -2.232428 H         1 <1>         0.027926 
     38 H           1.671118    4.656811   -0.597915 H         1 <1>         0.027926 
     39 H          -6.537977    0.418211   -0.823877 H         1 <1>         0.067748 
     40 H          -6.096558   -1.778530    0.183664 H         1 <1>         0.062606 
     41 H          -4.314104   -3.626704    0.771526 H         1 <1>         0.062503 
     42 H          -1.954488   -4.435879    0.726867 H         1 <1>         0.064358 
     43 H           1.725849   -0.570372   -1.909704 H         1 <1>         0.066087 
     44 H          -0.592151   -0.416547   -2.546602 H         1 <1>         0.068151 
     45 H           0.953116    0.400009    2.385034 H         1 <1>         0.057367 
     46 H           1.664970    0.206232    4.821782 H         1 <1>         0.027190 
     47 H           3.216053    1.004321    4.466649 H         1 <1>         0.027190 
     48 H           1.695863    1.898578    4.250697 H         1 <1>         0.027190 
     49 H           5.095584   -0.276654    1.506032 H         1 <1>         0.027926 
     50 H           4.724596    1.126835    2.530638 H         1 <1>         0.027926 
     51 H           4.571092   -0.542436    3.178148 H         1 <1>         0.027926 
     52 H           2.728707   -2.960628    0.094865 H         1 <1>         0.025821 
     53 H           2.443017   -4.261520   -1.069306 H         1 <1>         0.025821 
     54 H           3.229370   -2.755481   -1.617620 H         1 <1>         0.025821 
     55 H          -0.384708   -2.765349   -2.958514 H         1 <1>         0.025821 
     56 H           0.698478   -4.147448   -2.762972 H         1 <1>         0.025821 
     57 H           1.322854   -2.627202   -3.462612 H         1 <1>         0.025821 
@<TRIPOS>BOND
     1    1    2 1    
     2    1    5 2    
     3    6    1 1    
     4    2    3 2    
     5    2    7 1    
     6    3    4 1    
     7    3   32 1    
     8    4   33 1    
     9    4   34 1    
    10    4   35 1    
    11   20    6 1    
    12    7   36 1    
    13    7   37 1    
    14    7   38 1    
    15    8    9 1    
    16   17    8 1    
    17    8   22 2    
    18   10    9 2    
    19    9   39 1    
    20   11   10 1    
    21   10   40 1    
    22   12   11 1    
    23   16   11 2    
    24   13   12 2    
    25   12   41 1    
    26   14   13 1    
    27   13   42 1    
    28   14   15 2    
    29   21   14 1    
    30   15   16 1    
    31   15   20 1    
    32   16   17 1    
    33   18   19 1    
    34   18   21 1    
    35   18   30 1    
    36   18   31 1    
    37   19   20 1    
    38   19   23 1    
    39   19   43 1    
    40   20   44 1    
    41   23   24 1    
    42   24   25 1    
    43   24   28 2    
    44   25   26 2    
    45   25   29 1    
    46   26   27 1    
    47   26   45 1    
    48   27   46 1    
    49   27   47 1    
    50   27   48 1    
    51   29   49 1    
    52   29   50 1    
    53   29   51 1    
    54   30   52 1    
    55   30   53 1    
    56   30   54 1    
    57   31   55 1    
    58   31   56 1    
    59   31   57 1    
@<TRIPOS>SUBSTRUCTURE
     1 ****       18 TEMP              0 ****  ****    0 ROOT 
@<TRIPOS>NORMAL
@<TRIPOS>FF_PBC
FORCE_FIELD_SETUP_FEATURE Force Field Setup information
v1.0  0 0.000000 0.000000 0.000000 0.000000 0.000000 0.000000 NONE 0 0 0 0 1 0 0 0 0 0 0 0 0
