@<TRIPOS>MOLECULE
MOL011038
   56    59     1     1     0
SMALL
GASTEIGER


@<TRIPOS>ATOM
      1 C          -2.839741   -0.411594    2.936051 C.ar      1 <1>         0.077490 
      2 C          -1.591462   -1.189309    2.775174 C.ar      1 <1>        -0.001367 
      3 C          -0.405211   -0.581280    2.334116 C.ar      1 <1>         0.087595 
      4 C          -0.392922    0.868200    2.004904 C.ar      1 <1>         0.015337 
      5 C          -1.596514    1.626950    2.173858 C.ar      1 <1>         0.085217 
      6 C          -2.833272    0.964365    2.644804 C.ar      1 <1>        -0.001448 
      7 C           0.878759    1.550398    1.498606 C.3       1 <1>         0.006127 
      8 C           0.775292    3.080371    1.684085 C.3       1 <1>         0.090048 
      9 C          -0.584387    3.550315    1.098585 C.3       1 <1>         0.116322 
     10 O          -1.636454    2.998150    1.903993 O.3       1 <1>        -0.333862 
     11 O           0.855054    3.355833    3.095451 O.3       1 <1>        -0.388542 
     12 C           0.177569    3.728987   -1.336333 C.ar      1 <1>        -0.023672 
     13 C          -0.747257    3.215765   -0.395070 C.ar      1 <1>        -0.013328 
     14 C           0.048826    3.417038   -2.778362 C.ar      1 <1>         0.102526 
     15 C          -1.021229    2.608872   -3.232224 C.ar      1 <1>         0.102203 
     16 C          -2.003311    2.081533   -2.252131 C.ar      1 <1>        -0.029067 
     17 C          -1.869117    2.373043   -0.885070 C.ar      1 <1>        -0.053426 
     18 O          -1.134763    2.325265   -4.596188 O.3       1 <1>        -0.357275 
     19 O           0.989090    3.928754   -3.675432 O.3       1 <1>        -0.357268 
     20 O           0.745912   -1.363666    2.229963 O.3       1 <1>        -0.312114 
     21 O          -3.996567   -1.059778    3.376477 O.3       1 <1>        -0.359667 
     22 H          -0.665946    4.644544    1.189709 H         1 <1>         0.067763 
     23 H           1.625220    3.567682    1.176299 H         1 <1>         0.062592 
     24 C           1.201232   -1.688106    0.907890 C.3       1 <1>         0.193657 
     25 O           0.068933   -1.898642    0.042233 O.3       1 <1>        -0.340168 
     26 C           0.449180   -2.233983   -1.309417 C.3       1 <1>         0.113017 
     27 C           1.238184   -3.569348   -1.311064 C.3       1 <1>         0.111896 
     28 C           2.478248   -3.452097   -0.388997 C.3       1 <1>         0.114074 
     29 C           2.047243   -2.979591    1.021414 C.3       1 <1>         0.134509 
     30 C          -0.827151   -2.342159   -2.182583 C.3       1 <1>         0.073015 
     31 O           3.118491   -4.740863   -0.319761 O.3       1 <1>        -0.386401 
     32 O           1.648388   -3.880765   -2.655444 O.3       1 <1>        -0.386488 
     33 O           3.227658   -2.758951    1.818501 O.3       1 <1>        -0.384091 
     34 O          -1.446274   -1.046068   -2.300687 O.3       1 <1>        -0.392366 
     35 H          -1.593290   -2.247644    3.007144 H         1 <1>         0.066921 
     36 H          -3.731515    1.560817    2.756909 H         1 <1>         0.066920 
     37 H           1.758004    1.169834    2.041815 H         1 <1>         0.034073 
     38 H           0.985642    1.322105    0.427491 H         1 <1>         0.034073 
     39 H           0.767384    4.280830    3.302450 H         1 <1>         0.209916 
     40 H           0.995870    4.364103   -1.018623 H         1 <1>         0.064760 
     41 H          -2.833196    1.470421   -2.589071 H         1 <1>         0.064413 
     42 H          -2.605042    1.977472   -0.194742 H         1 <1>         0.062193 
     43 H          -1.885609    1.782912   -4.808408 H         1 <1>         0.217422 
     44 H           0.789539    3.678371   -4.572797 H         1 <1>         0.217422 
     45 H          -4.749680   -0.489536    3.484693 H         1 <1>         0.217316 
     46 H           1.845202   -0.879264    0.532539 H         1 <1>         0.094160 
     47 H           1.072852   -1.437762   -1.750399 H         1 <1>         0.064668 
     48 H           0.580098   -4.364913   -0.920343 H         1 <1>         0.064673 
     49 H           3.172108   -2.711612   -0.824584 H         1 <1>         0.064758 
     50 H           1.419360   -3.765447    1.475514 H         1 <1>         0.067108 
     51 H          -0.559170   -2.712779   -3.186803 H         1 <1>         0.058370 
     52 H          -1.519341   -3.059453   -1.711175 H         1 <1>         0.058370 
     53 H           3.882269   -4.726383    0.250685 H         1 <1>         0.210005 
     54 H           2.154221   -4.688216   -2.693103 H         1 <1>         0.210004 
     55 H           3.010847   -2.458953    2.697256 H         1 <1>         0.210111 
     56 H          -2.241955   -1.066474   -2.823792 H         1 <1>         0.209508 
@<TRIPOS>BOND
     1    1    2 1    
     2    1    6 2    
     3    1   21 1    
     4    2    3 2    
     5    2   35 1    
     6    3    4 1    
     7    3   20 1    
     8    4    5 2    
     9    4    7 1    
    10    5    6 1    
    11    5   10 1    
    12    6   36 1    
    13    7    8 1    
    14    7   37 1    
    15    7   38 1    
    16    8    9 1    
    17    8   11 1    
    18    8   23 1    
    19    9   10 1    
    20    9   13 1    
    21    9   22 1    
    22   11   39 1    
    23   13   12 2    
    24   12   14 1    
    25   12   40 1    
    26   13   17 1    
    27   14   15 2    
    28   14   19 1    
    29   15   16 1    
    30   15   18 1    
    31   16   17 2    
    32   16   41 1    
    33   17   42 1    
    34   18   43 1    
    35   19   44 1    
    36   20   24 1    
    37   21   45 1    
    38   24   25 1    
    39   24   29 1    
    40   24   46 1    
    41   25   26 1    
    42   26   27 1    
    43   26   30 1    
    44   26   47 1    
    45   27   28 1    
    46   27   32 1    
    47   27   48 1    
    48   28   29 1    
    49   28   31 1    
    50   28   49 1    
    51   29   33 1    
    52   29   50 1    
    53   30   34 1    
    54   30   51 1    
    55   30   52 1    
    56   31   53 1    
    57   32   54 1    
    58   33   55 1    
    59   34   56 1    
@<TRIPOS>SUBSTRUCTURE
     1 ****        1 TEMP              0 ****  ****    0 ROOT 
@<TRIPOS>NORMAL
@<TRIPOS>FF_PBC
FORCE_FIELD_SETUP_FEATURE Force Field Setup information
v1.0  0 0.000000 0.000000 0.000000 0.000000 0.000000 0.000000 NONE 0 0 0 0 1 0 0 0 0 0 0 0 0
