@<TRIPOS>MOLECULE
MOL004724
   39    40     1     1     0
SMALL
GASTEIGER


@<TRIPOS>ATOM
      1 C          -0.271627   -0.492998    0.626658 C.3       1 <1>        -0.013085 
      2 C          -0.971293   -0.942770   -0.698854 C.3       1 <1>        -0.031605 
      3 C          -0.294230    1.052635    0.770050 C.3       1 <1>        -0.013345 
      4 C          -2.459123   -0.477886   -0.591301 C.3       1 <1>        -0.045733 
      5 C          -0.275348   -0.498692   -2.040118 C.3       1 <1>        -0.043327 
      6 C           0.586288    1.456196    1.980495 C.3       1 <1>        -0.042294 
      7 C          -1.750780    1.481283    0.817829 C.2       1 <1>        -0.072943 
      8 C          -2.584955    1.054792   -0.372664 C.3       1 <1>        -0.031437 
      9 C           1.074645   -1.129811    0.880385 C.2       1 <1>        -0.081098 
     10 C           2.047429    0.998705    1.739869 C.3       1 <1>        -0.031439 
     11 C           2.128313   -0.463775    1.373702 C.2       1 <1>        -0.076221 
     12 C           1.255917   -0.778657   -2.060646 C.3       1 <1>        -0.062396 
     13 C          -0.907723   -1.198050   -3.282931 C.3       1 <1>        -0.062396 
     14 C          -2.295977    2.179272    1.825597 C.2       1 <1>        -0.099165 
     15 C           3.469496   -1.127622    1.590254 C.3       1 <1>        -0.043778 
     16 H          -0.859934   -0.890504    1.471993 H         1 <1>         0.035152 
     17 H          -0.972869   -2.046424   -0.699713 H         1 <1>         0.030917 
     18 H           0.163692    1.524825   -0.111813 H         1 <1>         0.035136 
     19 H          -2.925908   -0.972744    0.277525 H         1 <1>         0.027122 
     20 H          -3.053552   -0.779056   -1.464910 H         1 <1>         0.027122 
     21 H          -0.389987    0.583545   -2.201900 H         1 <1>         0.029832 
     22 H           0.580497    2.550251    2.118972 H         1 <1>         0.027417 
     23 H           0.201892    0.977877    2.896512 H         1 <1>         0.027417 
     24 H          -3.651644    1.297198   -0.234921 H         1 <1>         0.031008 
     25 H          -2.246476    1.610309   -1.258820 H         1 <1>         0.031008 
     26 H           1.171532   -2.191414    0.650998 H         1 <1>         0.057459 
     27 H           2.500206    1.578654    0.919803 H         1 <1>         0.031008 
     28 H           2.627230    1.192771    2.657114 H         1 <1>         0.031008 
     29 H           1.686248   -0.549540   -3.047875 H         1 <1>         0.023242 
     30 H           1.788053   -0.143890   -1.338645 H         1 <1>         0.023242 
     31 H           1.457398   -1.837352   -1.839312 H         1 <1>         0.023242 
     32 H          -0.364613   -0.930145   -4.202649 H         1 <1>         0.023242 
     33 H          -1.952602   -0.900438   -3.443897 H         1 <1>         0.023242 
     34 H          -0.866001   -2.292094   -3.169646 H         1 <1>         0.023242 
     35 H          -3.347937    2.462043    1.810612 H         1 <1>         0.053449 
     36 H          -1.744714    2.503240    2.705056 H         1 <1>         0.053449 
     37 H           3.492508   -2.166928    1.229114 H         1 <1>         0.027436 
     38 H           4.246282   -0.561998    1.054049 H         1 <1>         0.027436 
     39 H           3.710063   -1.130813    2.663929 H         1 <1>         0.027436 
@<TRIPOS>BOND
     1    1    2 1    
     2    1    3 1    
     3    1    9 1    
     4    1   16 1    
     5    2    4 1    
     6    2    5 1    
     7    2   17 1    
     8    3    6 1    
     9    3    7 1    
    10    3   18 1    
    11    4    8 1    
    12    4   19 1    
    13    4   20 1    
    14    5   12 1    
    15    5   13 1    
    16    5   21 1    
    17    6   10 1    
    18    6   22 1    
    19    6   23 1    
    20    7    8 1    
    21    7   14 2    
    22    8   24 1    
    23    8   25 1    
    24    9   11 2    
    25    9   26 1    
    26   10   11 1    
    27   10   27 1    
    28   10   28 1    
    29   11   15 1    
    30   12   29 1    
    31   12   30 1    
    32   12   31 1    
    33   13   32 1    
    34   13   33 1    
    35   13   34 1    
    36   14   35 1    
    37   14   36 1    
    38   15   37 1    
    39   15   38 1    
    40   15   39 1    
@<TRIPOS>SUBSTRUCTURE
     1 ****        1 TEMP              0 ****  ****    0 ROOT 
@<TRIPOS>NORMAL
@<TRIPOS>FF_PBC
FORCE_FIELD_SETUP_FEATURE Force Field Setup information
v1.0  0 0.000000 0.000000 0.000000 0.000000 0.000000 0.000000 NONE 0 0 0 0 1 0 0 0 0 0 0 0 0
