@<TRIPOS>MOLECULE
MOL008055
   19    19     1     1     0
SMALL
GASTEIGER


@<TRIPOS>ATOM
      1 C          -0.613376    0.696889   -0.017766 C.ar      1 <1>        -0.035583 
      2 C           0.582416    1.654119   -0.009058 C.3       1 <1>         0.035151 
      3 C          -1.164229    0.247605   -1.236146 C.ar      1 <1>        -0.057668 
      4 C          -1.202609    0.233082    1.262900 C.ar      1 <1>        -0.057668 
      5 C          -2.324543   -0.674857   -1.236438 C.ar      1 <1>        -0.061473 
      6 C          -2.301769   -0.641412    1.261342 C.ar      1 <1>        -0.061473 
      7 C          -2.878608   -1.106931   -0.021982 C.ar      1 <1>        -0.061741 
      8 C           1.809881    0.868699   -0.008230 C.1       1 <1>        -0.083754 
      9 C           2.822504    0.218119   -0.006930 C.1       1 <1>        -0.014757 
     10 C           3.982898   -0.527774   -0.004742 C.1       1 <1>        -0.018197 
     11 C           4.995675   -1.178565   -0.002415 C.1       1 <1>        -0.105329 
     12 H           0.572313    2.305044   -0.896218 H         1 <1>         0.044649 
     13 H           0.563471    2.288545    0.889662 H         1 <1>         0.044649 
     14 H          -0.742038    0.573526   -2.180935 H         1 <1>         0.062057 
     15 H          -0.782707    0.568676    2.205476 H         1 <1>         0.062057 
     16 H          -2.744016   -1.014504   -2.178071 H         1 <1>         0.061767 
     17 H          -2.730960   -0.978913    2.199430 H         1 <1>         0.061767 
     18 H          -3.728571   -1.781858   -0.019262 H         1 <1>         0.061758 
     19 H           5.883868   -1.749288   -0.000219 H         1 <1>         0.123788 
@<TRIPOS>BOND
     1    1    2 1    
     2    1    3 2    
     3    1    4 1    
     4    2    8 1    
     5    2   12 1    
     6    2   13 1    
     7    3    5 1    
     8    3   14 1    
     9    4    6 2    
    10    4   15 1    
    11    5    7 2    
    12    5   16 1    
    13    6    7 1    
    14    6   17 1    
    15    7   18 1    
    16    8    9 3    
    17    9   10 1    
    18   10   11 3    
    19   11   19 1    
@<TRIPOS>SUBSTRUCTURE
     1 ****        1 TEMP              0 ****  ****    0 ROOT 
@<TRIPOS>NORMAL
@<TRIPOS>FF_PBC
FORCE_FIELD_SETUP_FEATURE Force Field Setup information
v1.0  0 0.000000 0.000000 0.000000 0.000000 0.000000 0.000000 NONE 0 0 0 0 1 0 0 0 0 0 0 0 0
