@<TRIPOS>MOLECULE
MOL002230
   60    62     1     1     0
SMALL
GASTEIGER


@<TRIPOS>ATOM
      1 C          -1.843152   -0.828521    3.118722 C.ar      1 <1>         0.091050 
      2 C          -1.392154   -2.143721    2.610937 C.ar      1 <1>         0.000003 
      3 C          -0.271800   -2.235329    1.777236 C.ar      1 <1>         0.094282 
      4 C           0.472766   -1.015892    1.381860 C.ar      1 <1>         0.015863 
      5 C           0.047694    0.250091    1.876675 C.ar      1 <1>         0.085258 
      6 C          -1.131775    0.334409    2.768345 C.ar      1 <1>        -0.000578 
      7 C           1.677025   -1.131242    0.445146 C.3       1 <1>         0.006998 
      8 C           2.505392    0.178578    0.482201 C.3       1 <1>         0.102822 
      9 C           1.513430    1.364458    0.323223 C.3       1 <1>         0.117173 
     10 O           0.716155    1.425679    1.520380 O.3       1 <1>        -0.333834 
     11 C           1.230588    1.185166   -2.219793 C.ar      1 <1>        -0.022770 
     12 C           0.634491    1.281546   -0.942705 C.ar      1 <1>        -0.013276 
     13 C           0.395396    1.083534   -3.441003 C.ar      1 <1>         0.116917 
     14 C          -1.013721    1.088885   -3.327180 C.ar      1 <1>         0.116596 
     15 C          -1.644311    1.197784   -1.993681 C.ar      1 <1>        -0.028165 
     16 C          -0.849840    1.307589   -0.845974 C.ar      1 <1>        -0.053400 
     17 O          -1.814058    1.003042   -4.464909 O.3       1 <1>        -0.275301 
     18 O           0.985220    0.975374   -4.703343 O.3       1 <1>        -0.275292 
     19 O           0.143143   -3.482268    1.317121 O.3       1 <1>        -0.277485 
     20 O          -2.974626   -0.757490    3.931082 O.3       1 <1>        -0.277762 
     21 H           2.086036    2.304862    0.275129 H         1 <1>         0.067789 
     22 O           3.151358    0.346127    1.765754 O.3       1 <1>        -0.308794 
     23 C           1.070315   -4.067626    2.080221 C.2       1 <1>         0.264006 
     24 C           1.538081   -5.410653    1.593046 C.3       1 <1>         0.021812 
     25 O           1.519022   -3.561435    3.096913 O.2       1 <1>        -0.264888 
     26 C          -2.795432   -0.245863    5.151880 C.2       1 <1>         0.263998 
     27 O          -1.711464    0.132515    5.566834 O.2       1 <1>        -0.264888 
     28 C          -4.034200   -0.175935    6.001019 C.3       1 <1>         0.021811 
     29 H           3.256633    0.193570   -0.325323 H         1 <1>         0.063488 
     30 C           4.153243   -0.509155    2.014822 C.2       1 <1>         0.259393 
     31 C           4.699110   -0.436315    3.414159 C.3       1 <1>         0.021444 
     32 O           4.600130   -1.291394    1.191969 O.2       1 <1>        -0.265273 
     33 C          -2.314713    2.147888   -4.952209 C.2       1 <1>         0.264072 
     34 O          -3.100658    2.115958   -5.884147 O.2       1 <1>        -0.264887 
     35 C          -1.917958    3.470712   -4.338655 C.3       1 <1>         0.021813 
     36 C           1.823369    1.953147   -5.059568 C.2       1 <1>         0.264072 
     37 O           2.068277    2.907662   -4.340223 O.2       1 <1>        -0.264887 
     38 C           2.435686    1.817048   -6.428431 C.3       1 <1>         0.021813 
     39 H          -1.933717   -3.038061    2.890057 H         1 <1>         0.066962 
     40 H          -1.448338    1.301332    3.141967 H         1 <1>         0.066945 
     41 H           2.287421   -1.999506    0.728735 H         1 <1>         0.034098 
     42 H           1.292654   -1.311358   -0.570857 H         1 <1>         0.034098 
     43 H           2.309124    1.181942   -2.321947 H         1 <1>         0.064785 
     44 H          -2.726470    1.195799   -1.917845 H         1 <1>         0.064438 
     45 H          -1.347448    1.416471    0.110890 H         1 <1>         0.062193 
     46 H           2.298043   -5.831261    2.267736 H         1 <1>         0.033035 
     47 H           1.976149   -5.302657    0.589736 H         1 <1>         0.033035 
     48 H           0.683793   -6.102044    1.543039 H         1 <1>         0.033035 
     49 H          -4.392984   -1.193121    6.217730 H         1 <1>         0.033035 
     50 H          -3.824898    0.339900    6.950395 H         1 <1>         0.033035 
     51 H          -4.819099    0.372388    5.459792 H         1 <1>         0.033035 
     52 H           5.581295   -1.084978    3.525832 H         1 <1>         0.033023 
     53 H           4.984773    0.600715    3.646976 H         1 <1>         0.033023 
     54 H           3.920877   -0.765166    4.119620 H         1 <1>         0.033023 
     55 H          -2.381354    3.582285   -3.347893 H         1 <1>         0.033035 
     56 H          -0.825828    3.554497   -4.241073 H         1 <1>         0.033035 
     57 H          -2.263131    4.298675   -4.975902 H         1 <1>         0.033035 
     58 H           2.788515    0.786148   -6.582527 H         1 <1>         0.033035 
     59 H           1.681291    2.053712   -7.193736 H         1 <1>         0.033035 
     60 H           3.286837    2.506702   -6.544857 H         1 <1>         0.033035 
@<TRIPOS>BOND
     1    1    2 1    
     2    1    6 2    
     3    1   20 1    
     4    2    3 2    
     5    2   39 1    
     6    3    4 1    
     7    3   19 1    
     8    4    5 2    
     9    4    7 1    
    10    5    6 1    
    11    5   10 1    
    12    6   40 1    
    13    7    8 1    
    14    7   41 1    
    15    7   42 1    
    16    8    9 1    
    17    8   22 1    
    18    8   29 1    
    19    9   10 1    
    20    9   12 1    
    21    9   21 1    
    22   12   11 2    
    23   11   13 1    
    24   11   43 1    
    25   12   16 1    
    26   13   14 2    
    27   13   18 1    
    28   14   15 1    
    29   14   17 1    
    30   15   16 2    
    31   15   44 1    
    32   16   45 1    
    33   17   33 1    
    34   18   36 1    
    35   19   23 1    
    36   20   26 1    
    37   22   30 1    
    38   23   24 1    
    39   23   25 2    
    40   24   46 1    
    41   24   47 1    
    42   24   48 1    
    43   26   27 2    
    44   26   28 1    
    45   28   49 1    
    46   28   50 1    
    47   28   51 1    
    48   30   31 1    
    49   30   32 2    
    50   31   52 1    
    51   31   53 1    
    52   31   54 1    
    53   33   34 2    
    54   33   35 1    
    55   35   55 1    
    56   35   56 1    
    57   35   57 1    
    58   36   37 2    
    59   36   38 1    
    60   38   58 1    
    61   38   59 1    
    62   38   60 1    
@<TRIPOS>SUBSTRUCTURE
     1 ****        1 TEMP              0 ****  ****    0 ROOT 
@<TRIPOS>NORMAL
@<TRIPOS>FF_PBC
FORCE_FIELD_SETUP_FEATURE Force Field Setup information
v1.0  0 0.000000 0.000000 0.000000 0.000000 0.000000 0.000000 NONE 0 0 0 0 1 0 0 0 0 0 0 0 0
