@<TRIPOS>MOLECULE
MOL008707
   20    19     1     1     0
SMALL
GASTEIGER


@<TRIPOS>ATOM
      1 C           0.586977    0.088530   -0.210055 C.2       1 <1>         0.264734 
      2 O          -0.602795    0.706588   -0.255922 O.3       1 <1>        -0.315277 
      3 C           0.517748   -1.420239   -0.222121 C.3       1 <1>         0.039139 
      4 O           1.650688    0.687360   -0.163288 O.2       1 <1>        -0.264686 
      5 C          -0.516841    2.145359   -0.237083 C.3       1 <1>         0.054252 
      6 C           1.932270   -2.056694   -0.301854 C.3       1 <1>        -0.053626 
      7 C          -0.235488   -1.920187    1.039820 C.3       1 <1>        -0.053626 
      8 C          -1.955952    2.710700   -0.288629 C.3       1 <1>        -0.040980 
      9 H          -0.051486   -1.718392   -1.118984 H         1 <1>         0.039643 
     10 H          -0.024039    2.494869    0.686608 H         1 <1>         0.056303 
     11 H           0.049062    2.514656   -1.109765 H         1 <1>         0.056303 
     12 H           1.859435   -3.154684   -0.342913 H         1 <1>         0.023709 
     13 H           2.454956   -1.708631   -1.206745 H         1 <1>         0.023709 
     14 H           2.529826   -1.776287    0.579450 H         1 <1>         0.023709 
     15 H          -0.314748   -3.018393    1.031641 H         1 <1>         0.023709 
     16 H          -1.252935   -1.499741    1.074012 H         1 <1>         0.023709 
     17 H           0.301902   -1.611310    1.949766 H         1 <1>         0.023709 
     18 H          -1.939765    3.811951   -0.276645 H         1 <1>         0.025189 
     19 H          -2.458978    2.371486   -1.207554 H         1 <1>         0.025189 
     20 H          -2.529832    2.353056    0.580464 H         1 <1>         0.025189 
@<TRIPOS>BOND
     1    1    2 1    
     2    1    3 1    
     3    1    4 2    
     4    2    5 1    
     5    3    6 1    
     6    3    7 1    
     7    3    9 1    
     8    5    8 1    
     9    5   10 1    
    10    5   11 1    
    11    6   12 1    
    12    6   13 1    
    13    6   14 1    
    14    7   15 1    
    15    7   16 1    
    16    7   17 1    
    17    8   18 1    
    18    8   19 1    
    19    8   20 1    
@<TRIPOS>SUBSTRUCTURE
     1 ****        1 TEMP              0 ****  ****    0 ROOT 
@<TRIPOS>NORMAL
@<TRIPOS>FF_PBC
FORCE_FIELD_SETUP_FEATURE Force Field Setup information
v1.0  0 0.000000 0.000000 0.000000 0.000000 0.000000 0.000000 NONE 0 0 0 0 1 0 0 0 0 0 0 0 0
