@<TRIPOS>MOLECULE
MOL002146
   29    30     1     1     0
SMALL
GASTEIGER


@<TRIPOS>ATOM
      1 C          -0.988494    0.873059    0.943055 C.3       1 <1>        -0.021042 
      2 C          -2.365268    1.325654    1.513823 C.3       1 <1>        -0.030357 
      3 C          -2.964955    0.369319    2.521363 C.2       1 <1>        -0.082952 
      4 C          -2.686632   -0.939068    2.487338 C.2       1 <1>        -0.052436 
      5 C          -1.748655   -1.420650    1.466508 C.2       1 <1>         0.052184 
      6 C          -0.960026   -0.622031    0.757161 C.2       1 <1>        -0.003876 
      7 C          -1.434334   -2.762896    0.978405 C.2       1 <1>         0.299104 
      8 O          -0.512911   -2.833863    0.017256 O.3       1 <1>        -0.273878 
      9 C          -0.188694   -1.538645   -0.112413 C.2       1 <1>         0.088886 
     10 O          -1.981932   -3.759701    1.419106 O.2       1 <1>        -0.258816 
     11 C           0.780201   -1.215304   -0.980897 C.2       1 <1>        -0.024936 
     12 C           1.337033    0.162530   -1.246235 C.3       1 <1>         0.075766 
     13 C           2.751176    0.062318   -1.889283 C.3       1 <1>        -0.025998 
     14 C           3.463322    1.434879   -2.029688 C.3       1 <1>        -0.062640 
     15 O           0.399681    0.804677   -2.126503 O.3       1 <1>        -0.387686 
     16 H          -0.192795    1.125002    1.661949 H         1 <1>         0.031714 
     17 H          -0.811445    1.415204    0.003376 H         1 <1>         0.031714 
     18 H          -2.260756    2.328557    1.959831 H         1 <1>         0.031056 
     19 H          -3.095770    1.395213    0.691266 H         1 <1>         0.031056 
     20 H          -3.655751    0.751870    3.274764 H         1 <1>         0.057233 
     21 H          -3.135602   -1.644943    3.186629 H         1 <1>         0.062226 
     22 H           1.202373   -2.043770   -1.551042 H         1 <1>         0.062341 
     23 H           1.440956    0.696248   -0.287571 H         1 <1>         0.063824 
     24 H           3.381333   -0.584774   -1.255448 H         1 <1>         0.029052 
     25 H           2.666225   -0.405955   -2.883816 H         1 <1>         0.029052 
     26 H           4.486945    1.286154   -2.408969 H         1 <1>         0.023066 
     27 H           2.933501    2.091319   -2.735653 H         1 <1>         0.023066 
     28 H           3.525240    1.939692   -1.053112 H         1 <1>         0.023066 
     29 H           0.616231    1.709810   -2.321100 H         1 <1>         0.210208 
@<TRIPOS>BOND
     1    1    2 1    
     2    1    6 1    
     3    1   16 1    
     4    1   17 1    
     5    2    3 1    
     6    2   18 1    
     7    2   19 1    
     8    3    4 2    
     9    3   20 1    
    10    4    5 1    
    11    4   21 1    
    12    5    6 2    
    13    5    7 1    
    14    6    9 1    
    15    7    8 1    
    16    7   10 2    
    17    8    9 1    
    18    9   11 2    
    19   11   12 1    
    20   11   22 1    
    21   12   13 1    
    22   12   15 1    
    23   12   23 1    
    24   13   14 1    
    25   13   24 1    
    26   13   25 1    
    27   14   26 1    
    28   14   27 1    
    29   14   28 1    
    30   15   29 1    
@<TRIPOS>SUBSTRUCTURE
     1 ****        1 TEMP              0 ****  ****    0 ROOT 
@<TRIPOS>NORMAL
@<TRIPOS>FF_PBC
FORCE_FIELD_SETUP_FEATURE Force Field Setup information
v1.0  0 0.000000 0.000000 0.000000 0.000000 0.000000 0.000000 NONE 0 0 0 0 1 0 0 0 0 0 0 0 0
