@<TRIPOS>MOLECULE
MOL001972
   27    27     1     1     0
SMALL
GASTEIGER


@<TRIPOS>ATOM
      1 C           0.844625    0.796888    1.812039 C.3       1 <1>         0.012727 
      2 C          -0.677849    0.985512    2.025486 C.3       1 <1>        -0.036591 
      3 C          -1.305461    1.451780    0.686527 C.3       1 <1>        -0.045964 
      4 C          -1.129707    0.404819   -0.446441 C.3       1 <1>        -0.024190 
      5 C           0.275169   -0.159260   -0.555156 C.2       1 <1>        -0.006241 
      6 C           1.106411   -0.155225    0.676113 C.2       1 <1>         0.159425 
      7 C          -1.337858   -0.311478    2.571478 C.3       1 <1>        -0.062009 
      8 O           2.020119   -0.952581    0.816263 O.2       1 <1>        -0.292387 
      9 C           0.735179   -0.646869   -1.725941 C.2       1 <1>        -0.069240 
     10 C           2.172033   -1.093328   -1.912120 C.3       1 <1>        -0.043395 
     11 C          -0.134160   -0.791205   -2.961132 C.3       1 <1>        -0.043395 
     12 H           1.332382    1.754084    1.569942 H         1 <1>         0.034759 
     13 H           1.293692    0.413401    2.742687 H         1 <1>         0.034759 
     14 H          -0.830820    1.781629    2.776876 H         1 <1>         0.030232 
     15 H          -2.377913    1.667655    0.828778 H         1 <1>         0.027109 
     16 H          -0.814040    2.392504    0.383857 H         1 <1>         0.027109 
     17 H          -1.824205   -0.435499   -0.291163 H         1 <1>         0.031431 
     18 H          -1.423489    0.924450   -1.373049 H         1 <1>         0.031431 
     19 H          -1.138215   -1.174882    1.920062 H         1 <1>         0.023252 
     20 H          -2.427470   -0.177538    2.655067 H         1 <1>         0.023252 
     21 H          -0.941283   -0.543851    3.572247 H         1 <1>         0.023252 
     22 H           2.875733   -0.443544   -1.371231 H         1 <1>         0.027446 
     23 H           2.467530   -1.050957   -2.971606 H         1 <1>         0.027446 
     24 H           2.283986   -2.130314   -1.561682 H         1 <1>         0.027446 
     25 H           0.183664   -1.663515   -3.552595 H         1 <1>         0.027446 
     26 H          -1.196810   -0.952103   -2.730407 H         1 <1>         0.027446 
     27 H          -0.031143    0.109324   -3.584802 H         1 <1>         0.027446 
@<TRIPOS>BOND
     1    1    2 1    
     2    1    6 1    
     3    1   12 1    
     4    1   13 1    
     5    2    3 1    
     6    2    7 1    
     7    2   14 1    
     8    3    4 1    
     9    3   15 1    
    10    3   16 1    
    11    4    5 1    
    12    4   17 1    
    13    4   18 1    
    14    5    6 1    
    15    5    9 2    
    16    6    8 2    
    17    7   19 1    
    18    7   20 1    
    19    7   21 1    
    20    9   10 1    
    21    9   11 1    
    22   10   22 1    
    23   10   23 1    
    24   10   24 1    
    25   11   25 1    
    26   11   26 1    
    27   11   27 1    
@<TRIPOS>SUBSTRUCTURE
     1 ****        1 TEMP              0 ****  ****    0 ROOT 
@<TRIPOS>NORMAL
@<TRIPOS>FF_PBC
FORCE_FIELD_SETUP_FEATURE Force Field Setup information
v1.0  0 0.000000 0.000000 0.000000 0.000000 0.000000 0.000000 NONE 0 0 0 0 1 0 0 0 0 0 0 0 0
