@<TRIPOS>MOLECULE
MOL005397
   84    87     1     1     0
SMALL
GASTEIGER


@<TRIPOS>ATOM
      1 C          -0.956983   -1.522950   -0.753197 C.3       1 <1>        -0.023071 
      2 C           0.425946   -0.712767   -0.721126 C.3       1 <1>        -0.023306 
      3 C          -2.171891   -0.628110   -0.291597 C.3       1 <1>        -0.029442 
      4 C          -3.676397   -1.095692   -0.523972 C.3       1 <1>        -0.025409 
      5 C           0.631403    0.137049    0.579229 C.3       1 <1>        -0.032042 
      6 C          -3.810438   -1.585023   -2.010813 C.3       1 <1>        -0.030187 
      7 C          -1.282658   -1.999985   -2.208019 C.3       1 <1>        -0.046561 
      8 C          -1.892323   -0.068405    1.133491 C.3       1 <1>        -0.048917 
      9 C           1.710983    1.236816    0.263834 C.3       1 <1>        -0.035093 
     10 C           0.603262    0.405937   -1.795316 C.3       1 <1>        -0.046586 
     11 C          -0.658430    0.860781    1.075357 C.3       1 <1>        -0.049153 
     12 C          -2.699402   -2.618852   -2.367326 C.3       1 <1>        -0.048700 
     13 C          -5.258622   -1.976737   -2.511035 C.3       1 <1>        -0.031548 
     14 C           1.781910    1.283656   -1.294003 C.3       1 <1>        -0.049179 
     15 C          -4.630210    0.154965   -0.342910 C.3       1 <1>        -0.047064 
     16 C          -0.799850   -2.790430    0.157205 C.3       1 <1>        -0.058784 
     17 C           1.645986   -1.697071   -0.880371 C.3       1 <1>        -0.058793 
     18 C          -4.144248   -2.187101    0.503772 C.3       1 <1>        -0.059021 
     19 C          -6.342971   -1.107894   -1.790350 C.3       1 <1>        -0.047584 
     20 C           3.078106    1.098458    1.022856 C.3       1 <1>        -0.040776 
     21 C          -5.778504    0.275238   -1.390622 C.3       1 <1>        -0.052053 
     22 C          -5.373816   -1.707829   -4.052597 C.3       1 <1>        -0.059542 
     23 C          -5.616268   -3.482865   -2.307603 C.3       1 <1>        -0.059542 
     24 C           4.121302    2.159463    0.528334 C.3       1 <1>        -0.050191 
     25 C           2.866673    1.243895    2.561581 C.3       1 <1>        -0.062155 
     26 C           5.521923    2.102195    1.220703 C.3       1 <1>        -0.052573 
     27 C           5.702468    3.153763    2.357119 C.3       1 <1>        -0.050700 
     28 C           7.127924    3.160141    2.990936 C.3       1 <1>        -0.046721 
     29 C           7.249580    4.337016    4.000893 C.3       1 <1>        -0.062665 
     30 C           7.463321    1.823052    3.710946 C.3       1 <1>        -0.062665 
     31 H          -2.112357    0.230088   -0.969858 H         1 <1>         0.031155 
     32 H           0.944733   -0.550693    1.376339 H         1 <1>         0.030895 
     33 H          -3.548058   -0.696092   -2.606570 H         1 <1>         0.031129 
     34 H          -0.556273   -2.746543   -2.561956 H         1 <1>         0.027087 
     35 H          -1.231583   -1.151019   -2.905287 H         1 <1>         0.027087 
     36 H          -2.739805    0.526058    1.507779 H         1 <1>         0.026837 
     37 H          -1.709371   -0.861599    1.870976 H         1 <1>         0.026837 
     38 H           1.351004    2.228837    0.586585 H         1 <1>         0.030619 
     39 H           0.821830    0.004090   -2.798082 H         1 <1>         0.027086 
     40 H          -0.272052    1.062610   -1.882640 H         1 <1>         0.027086 
     41 H          -0.470679    1.273984    2.081501 H         1 <1>         0.026828 
     42 H          -0.913310    1.709669    0.419411 H         1 <1>         0.026828 
     43 H          -2.789956   -2.925302   -3.420589 H         1 <1>         0.026845 
     44 H          -2.780676   -3.535246   -1.768637 H         1 <1>         0.026845 
     45 H           1.710139    2.312886   -1.687232 H         1 <1>         0.026828 
     46 H           2.719133    0.871238   -1.690679 H         1 <1>         0.026828 
     47 H          -5.075525    0.148255    0.665831 H         1 <1>         0.027069 
     48 H          -4.099598    1.118423   -0.414392 H         1 <1>         0.027069 
     49 H          -1.738381   -3.277743    0.399054 H         1 <1>         0.023533 
     50 H          -0.324362   -2.560749    1.119467 H         1 <1>         0.023533 
     51 H          -0.197185   -3.567746   -0.334690 H         1 <1>         0.023533 
     52 H           2.619192   -1.206491   -0.957404 H         1 <1>         0.023533 
     53 H           1.551076   -2.305550   -1.788429 H         1 <1>         0.023533 
     54 H           1.760760   -2.373596   -0.023079 H         1 <1>         0.023533 
     55 H          -3.722202   -1.999288    1.498846 H         1 <1>         0.023525 
     56 H          -3.895816   -3.211908    0.219323 H         1 <1>         0.023525 
     57 H          -5.229535   -2.196463    0.650175 H         1 <1>         0.023525 
     58 H          -7.219492   -0.959953   -2.442550 H         1 <1>         0.027052 
     59 H          -6.735275   -1.592804   -0.887002 H         1 <1>         0.027052 
     60 H           3.483726    0.092452    0.832056 H         1 <1>         0.030088 
     61 H          -5.421235    0.783051   -2.301639 H         1 <1>         0.026562 
     62 H          -6.587865    0.901687   -0.976569 H         1 <1>         0.026562 
     63 H          -4.645049   -2.292039   -4.630303 H         1 <1>         0.023507 
     64 H          -6.370885   -1.983107   -4.430173 H         1 <1>         0.023507 
     65 H          -5.217791   -0.645508   -4.292326 H         1 <1>         0.023507 
     66 H          -6.639324   -3.676427   -2.665792 H         1 <1>         0.023507 
     67 H          -5.585430   -3.785729   -1.255046 H         1 <1>         0.023507 
     68 H          -4.939187   -4.138666   -2.873858 H         1 <1>         0.023507 
     69 H           4.306394    1.993939   -0.542910 H         1 <1>         0.026794 
     70 H           3.694756    3.170463    0.622172 H         1 <1>         0.026794 
     71 H           2.076703    0.591963    2.954358 H         1 <1>         0.023250 
     72 H           2.591776    2.280400    2.809357 H         1 <1>         0.023250 
     73 H           3.782057    0.975507    3.108088 H         1 <1>         0.023250 
     74 H           5.698421    1.076446    1.574034 H         1 <1>         0.026545 
     75 H           6.306601    2.326991    0.477204 H         1 <1>         0.026545 
     76 H           5.520973    4.150204    1.920870 H         1 <1>         0.026777 
     77 H           4.965381    3.008334    3.158095 H         1 <1>         0.026777 
     78 H           7.874270    3.323325    2.193278 H         1 <1>         0.029548 
     79 H           6.531938    4.210067    4.826072 H         1 <1>         0.023233 
     80 H           7.046229    5.298949    3.505015 H         1 <1>         0.023233 
     81 H           8.264808    4.381858    4.425187 H         1 <1>         0.023233 
     82 H           8.429963    1.901609    4.232191 H         1 <1>         0.023233 
     83 H           7.543564    0.989090    2.999129 H         1 <1>         0.023233 
     84 H           6.686654    1.582422    4.452929 H         1 <1>         0.023233 
@<TRIPOS>BOND
     1    1    2 1    
     2    1    3 1    
     3    1    7 1    
     4    1   16 1    
     5    2    5 1    
     6    2   10 1    
     7    2   17 1    
     8    3    4 1    
     9    3    8 1    
    10    3   31 1    
    11    4    6 1    
    12    4   15 1    
    13    4   18 1    
    14    5    9 1    
    15    5   11 1    
    16    5   32 1    
    17    6   12 1    
    18    6   13 1    
    19    6   33 1    
    20    7   12 1    
    21    7   34 1    
    22    7   35 1    
    23    8   11 1    
    24    8   36 1    
    25    8   37 1    
    26    9   14 1    
    27    9   20 1    
    28    9   38 1    
    29   10   14 1    
    30   10   39 1    
    31   10   40 1    
    32   11   41 1    
    33   11   42 1    
    34   12   43 1    
    35   12   44 1    
    36   13   19 1    
    37   13   22 1    
    38   13   23 1    
    39   14   45 1    
    40   14   46 1    
    41   15   21 1    
    42   15   47 1    
    43   15   48 1    
    44   16   49 1    
    45   16   50 1    
    46   16   51 1    
    47   17   52 1    
    48   17   53 1    
    49   17   54 1    
    50   18   55 1    
    51   18   56 1    
    52   18   57 1    
    53   19   21 1    
    54   19   58 1    
    55   19   59 1    
    56   20   24 1    
    57   20   25 1    
    58   20   60 1    
    59   21   61 1    
    60   21   62 1    
    61   22   63 1    
    62   22   64 1    
    63   22   65 1    
    64   23   66 1    
    65   23   67 1    
    66   23   68 1    
    67   24   26 1    
    68   24   69 1    
    69   24   70 1    
    70   25   71 1    
    71   25   72 1    
    72   25   73 1    
    73   26   27 1    
    74   26   74 1    
    75   26   75 1    
    76   27   28 1    
    77   27   76 1    
    78   27   77 1    
    79   28   29 1    
    80   28   30 1    
    81   28   78 1    
    82   29   79 1    
    83   29   80 1    
    84   29   81 1    
    85   30   82 1    
    86   30   83 1    
    87   30   84 1    
@<TRIPOS>SUBSTRUCTURE
     1 ****        1 TEMP              0 ****  ****    0 ROOT 
@<TRIPOS>NORMAL
@<TRIPOS>FF_PBC
FORCE_FIELD_SETUP_FEATURE Force Field Setup information
v1.0  0 0.000000 0.000000 0.000000 0.000000 0.000000 0.000000 NONE 0 0 0 0 1 0 0 0 0 0 0 0 0
