@<TRIPOS>MOLECULE
MOL000910
   38    38     1     1     0
SMALL
GASTEIGER


@<TRIPOS>ATOM
      1 C           1.268586   -1.278387    0.716198 C.2       1 <1>         0.163409 
      2 C           0.167528   -2.160110    0.176397 C.3       1 <1>         0.031032 
      3 C          -1.133879   -1.475881    0.546102 C.2       1 <1>        -0.069113 
      4 C          -1.938848   -0.985903   -0.415243 C.2       1 <1>        -0.084317 
      5 C          -3.150049   -0.092131   -0.234958 C.3       1 <1>        -0.030828 
      6 C          -2.690616    1.364111   -0.547599 C.3       1 <1>        -0.028553 
      7 C          -1.416515    1.625955    0.239229 C.2       1 <1>        -0.075930 
      8 C          -0.235602    1.266847   -0.296726 C.2       1 <1>        -0.080602 
      9 C           1.123672    1.232989    0.360676 C.3       1 <1>        -0.005985 
     10 C           1.736056   -0.097561   -0.040625 C.2       1 <1>        -0.002218 
     11 C           3.102463    0.937795   -1.872018 C.3       1 <1>        -0.043386 
     12 C           2.640390   -0.231330   -1.028027 C.2       1 <1>        -0.068932 
     13 C           3.271357   -1.563963   -1.379350 C.3       1 <1>        -0.043386 
     14 C          -1.611620    2.245695    1.606805 C.3       1 <1>        -0.043768 
     15 C          -1.379962   -1.359671    2.037263 C.3       1 <1>        -0.043375 
     16 O           1.769696   -1.524250    1.801582 O.2       1 <1>        -0.292047 
     17 H           0.306110   -2.256781   -0.911135 H         1 <1>         0.039016 
     18 H           0.226680   -3.169932    0.610417 H         1 <1>         0.039016 
     19 H          -1.692939   -1.182230   -1.459817 H         1 <1>         0.057174 
     20 H          -3.952305   -0.398688   -0.925987 H         1 <1>         0.031044 
     21 H          -3.572323   -0.112792    0.777182 H         1 <1>         0.031044 
     22 H          -2.508037    1.458779   -1.630672 H         1 <1>         0.031285 
     23 H          -3.485645    2.083240   -0.292375 H         1 <1>         0.031285 
     24 H          -0.228349    0.918089   -1.330905 H         1 <1>         0.057481 
     25 H           1.715833    2.110836    0.066668 H         1 <1>         0.035665 
     26 H           1.069196    1.229683    1.457519 H         1 <1>         0.035665 
     27 H           3.590000    0.595532   -2.797657 H         1 <1>         0.027446 
     28 H           3.829281    1.535562   -1.301884 H         1 <1>         0.027446 
     29 H           2.258295    1.576152   -2.172110 H         1 <1>         0.027446 
     30 H           3.041947   -2.375340   -0.674035 H         1 <1>         0.027446 
     31 H           2.928608   -1.872400   -2.378465 H         1 <1>         0.027446 
     32 H           4.365748   -1.449560   -1.402180 H         1 <1>         0.027446 
     33 H          -0.679789    2.486371    2.132978 H         1 <1>         0.027436 
     34 H          -2.208501    1.574914    2.241142 H         1 <1>         0.027436 
     35 H          -2.164324    3.189914    1.490900 H         1 <1>         0.027436 
     36 H          -2.434088   -1.247015    2.316463 H         1 <1>         0.027447 
     37 H          -1.022515   -2.267729    2.545613 H         1 <1>         0.027447 
     38 H          -0.812874   -0.505653    2.434142 H         1 <1>         0.027447 
@<TRIPOS>BOND
     1    1    2 1    
     2    1   10 1    
     3    1   16 2    
     4    2    3 1    
     5    2   17 1    
     6    2   18 1    
     7    3    4 2    
     8    3   15 1    
     9    4    5 1    
    10    4   19 1    
    11    5    6 1    
    12    5   20 1    
    13    5   21 1    
    14    6    7 1    
    15    6   22 1    
    16    6   23 1    
    17    7    8 2    
    18    7   14 1    
    19    8    9 1    
    20    8   24 1    
    21    9   10 1    
    22    9   25 1    
    23    9   26 1    
    24   10   12 2    
    25   12   11 1    
    26   11   27 1    
    27   11   28 1    
    28   11   29 1    
    29   12   13 1    
    30   13   30 1    
    31   13   31 1    
    32   13   32 1    
    33   14   33 1    
    34   14   34 1    
    35   14   35 1    
    36   15   36 1    
    37   15   37 1    
    38   15   38 1    
@<TRIPOS>SUBSTRUCTURE
     1 ****        1 TEMP              0 ****  ****    0 ROOT 
@<TRIPOS>NORMAL
@<TRIPOS>FF_PBC
FORCE_FIELD_SETUP_FEATURE Force Field Setup information
v1.0  0 0.000000 0.000000 0.000000 0.000000 0.000000 0.000000 NONE 0 0 0 0 1 0 0 0 0 0 0 0 0
