@<TRIPOS>MOLECULE
MOL004047
   41    42     1     1     0
SMALL
GASTEIGER


@<TRIPOS>ATOM
      1 C          -1.065689   -1.086364   -0.046595 C.3       1 <1>        -0.025270 
      2 C          -0.686994    0.429102    0.001872 C.3       1 <1>        -0.014495 
      3 C           1.749240   -0.075410   -0.697840 C.3       1 <1>        -0.038132 
      4 C           0.211531   -1.960354    0.166359 C.3       1 <1>        -0.046810 
      5 C           0.455655    0.743322   -1.009424 C.3       1 <1>        -0.042943 
      6 C           1.378961   -1.586996   -0.790628 C.3       1 <1>        -0.049446 
      7 C          -2.051830   -1.339501    1.133769 C.3       1 <1>        -0.043631 
      8 C          -1.934136    1.295277   -0.070920 C.2       1 <1>        -0.072924 
      9 C          -1.769921   -1.484329   -1.387065 C.3       1 <1>        -0.059008 
     10 C           2.487527    0.326914    0.634629 C.3       1 <1>        -0.043867 
     11 C          -3.354878   -0.514897    0.965473 C.3       1 <1>        -0.033997 
     12 C          -3.121040    0.855753    0.376390 C.2       1 <1>        -0.084726 
     13 C          -1.789327    2.688557   -0.647167 C.3       1 <1>        -0.043507 
     14 C           3.863749   -0.392363    0.783438 C.3       1 <1>        -0.062414 
     15 C           2.731403    1.863033    0.738334 C.3       1 <1>        -0.062414 
     16 H          -0.287096    0.674867    0.996075 H         1 <1>         0.035088 
     17 H           2.462504    0.137967   -1.513349 H         1 <1>         0.030345 
     18 H          -0.045653   -3.022587    0.021668 H         1 <1>         0.027078 
     19 H           0.566670   -1.858335    1.202619 H         1 <1>         0.027078 
     20 H           0.104525    0.517287   -2.027235 H         1 <1>         0.027388 
     21 H           0.709178    1.810480   -1.022184 H         1 <1>         0.027388 
     22 H           2.243389   -2.231598   -0.578027 H         1 <1>         0.026819 
     23 H           1.098939   -1.820592   -1.828277 H         1 <1>         0.026819 
     24 H          -1.572128   -1.041863    2.081093 H         1 <1>         0.027364 
     25 H          -2.297871   -2.411076    1.217455 H         1 <1>         0.027364 
     26 H           1.894627    0.042590    1.517331 H         1 <1>         0.029814 
     27 H          -1.104358   -1.469861   -2.257203 H         1 <1>         0.023525 
     28 H          -2.604523   -0.812997   -1.630996 H         1 <1>         0.023525 
     29 H          -2.169020   -2.507069   -1.305481 H         1 <1>         0.023525 
     30 H          -3.854283   -0.413905    1.943053 H         1 <1>         0.030757 
     31 H          -4.048677   -1.048469    0.295931 H         1 <1>         0.030757 
     32 H          -3.998645    1.501732    0.319468 H         1 <1>         0.057163 
     33 H          -2.721429    3.269978   -0.583273 H         1 <1>         0.027445 
     34 H          -1.508400    2.631426   -1.708962 H         1 <1>         0.027445 
     35 H          -1.017450    3.242718   -0.092559 H         1 <1>         0.027445 
     36 H           4.487809   -0.214347   -0.105290 H         1 <1>         0.023242 
     37 H           3.755145   -1.475722    0.929053 H         1 <1>         0.023242 
     38 H           4.409560   -0.019250    1.663896 H         1 <1>         0.023242 
     39 H           3.225719    2.232231   -0.173044 H         1 <1>         0.023242 
     40 H           3.372637    2.106737    1.599402 H         1 <1>         0.023242 
     41 H           1.793179    2.416412    0.889911 H         1 <1>         0.023242 
@<TRIPOS>BOND
     1    1    2 1    
     2    1    4 1    
     3    1    7 1    
     4    1    9 1    
     5    2    5 1    
     6    2    8 1    
     7    2   16 1    
     8    5    3 1    
     9    3    6 1    
    10    3   10 1    
    11    3   17 1    
    12    4    6 1    
    13    4   18 1    
    14    4   19 1    
    15    5   20 1    
    16    5   21 1    
    17    6   22 1    
    18    6   23 1    
    19    7   11 1    
    20    7   24 1    
    21    7   25 1    
    22    8   12 2    
    23    8   13 1    
    24    9   27 1    
    25    9   28 1    
    26    9   29 1    
    27   10   14 1    
    28   10   15 1    
    29   10   26 1    
    30   11   12 1    
    31   11   30 1    
    32   11   31 1    
    33   12   32 1    
    34   13   33 1    
    35   13   34 1    
    36   13   35 1    
    37   14   36 1    
    38   14   37 1    
    39   14   38 1    
    40   15   39 1    
    41   15   40 1    
    42   15   41 1    
@<TRIPOS>SUBSTRUCTURE
     1 ****        1 TEMP              0 ****  ****    0 ROOT 
@<TRIPOS>NORMAL
@<TRIPOS>FF_PBC
FORCE_FIELD_SETUP_FEATURE Force Field Setup information
v1.0  0 0.000000 0.000000 0.000000 0.000000 0.000000 0.000000 NONE 0 0 0 0 1 0 0 0 0 0 0 0 0
