@<TRIPOS>MOLECULE
MOL001908
   65    68     1     1     0
SMALL
GASTEIGER


@<TRIPOS>ATOM
      1 O           2.427349   -0.974064   -0.727852 O.3       1 <1>        -0.320130 
      2 O           0.330485   -1.760651   -0.267413 O.3       1 <1>        -0.340186 
      3 O           3.414220   -3.746021   -0.855845 O.3       1 <1>        -0.384092 
      4 O          -2.291435   -1.009790   -0.363735 O.3       1 <1>        -0.346061 
      5 O           1.684552   -5.633511    0.525297 O.3       1 <1>        -0.386401 
      6 O          -1.159319   -5.105738    0.223399 O.3       1 <1>        -0.386488 
      7 O          -4.530754   -1.080059    0.324293 O.3       1 <1>        -0.346071 
      8 O          -2.406990    1.829796   -0.616777 O.3       1 <1>        -0.384104 
      9 O          -5.057913    2.995738   -0.811607 O.3       1 <1>        -0.386412 
     10 O          -6.462172    0.400536   -1.269638 O.3       1 <1>        -0.386859 
     11 C           3.206859    2.243352    1.160812 C.3       1 <1>        -0.025454 
     12 C           3.536914    3.501708    0.305920 C.3       1 <1>        -0.034496 
     13 C           3.695847    1.437463   -0.071431 C.3       1 <1>        -0.012097 
     14 C           4.563326    2.653041   -0.489640 C.3       1 <1>        -0.042583 
     15 C           2.380814    3.858834   -0.672927 C.3       1 <1>        -0.045915 
     16 C           2.511155    1.325950   -1.007030 C.2       1 <1>        -0.043210 
     17 C           2.000547    2.638373   -1.577808 C.3       1 <1>        -0.029053 
     18 C           1.733563    2.020891    1.628850 C.3       1 <1>        -0.059015 
     19 C           4.149098    2.085887    2.393476 C.3       1 <1>        -0.059015 
     20 C           1.937259    0.147799   -1.278710 C.2       1 <1>         0.042736 
     21 C           1.567666   -2.112014   -0.909530 C.3       1 <1>         0.192886 
     22 C           2.194858   -3.338827   -0.204117 C.3       1 <1>         0.134482 
     23 C           1.186499   -4.515981   -0.234825 C.3       1 <1>         0.114074 
     24 C          -0.672618   -2.789901   -0.337213 C.3       1 <1>         0.113377 
     25 C          -0.169018   -4.071911    0.374031 C.3       1 <1>         0.111906 
     26 C          -1.942053   -2.218567    0.340965 C.3       1 <1>         0.079556 
     27 C          -3.348914   -0.260827    0.259641 C.3       1 <1>         0.187602 
     28 C          -3.584733    0.997357   -0.613869 C.3       1 <1>         0.134090 
     29 C          -4.792617    1.795612   -0.059019 C.3       1 <1>         0.113708 
     30 C          -6.031847    0.862043    0.026620 C.3       1 <1>         0.106933 
     31 C          -5.665015   -0.383005    0.877092 C.3       1 <1>         0.079192 
     32 H           3.941576    4.361922    0.864581 H         1 <1>         0.030640 
     33 H           4.240323    0.505342    0.146818 H         1 <1>         0.035167 
     34 H           4.653827    2.847202   -1.569924 H         1 <1>         0.027398 
     35 H           5.568783    2.648298   -0.042526 H         1 <1>         0.027398 
     36 H           1.519165    4.207453   -0.081240 H         1 <1>         0.027114 
     37 H           2.698907    4.704583   -1.305383 H         1 <1>         0.027114 
     38 H           0.910616    2.615643   -1.738144 H         1 <1>         0.031086 
     39 H           2.468529    2.746807   -2.569123 H         1 <1>         0.031086 
     40 H           1.480141    2.771323    2.392633 H         1 <1>         0.023525 
     41 H           0.969714    2.080150    0.843404 H         1 <1>         0.023525 
     42 H           1.648902    1.020446    2.080122 H         1 <1>         0.023525 
     43 H           5.215602    2.214940    2.167430 H         1 <1>         0.023525 
     44 H           3.879240    2.832159    3.155677 H         1 <1>         0.023525 
     45 H           4.022775    1.082733    2.827738 H         1 <1>         0.023525 
     46 H           1.066061    0.146318   -1.938221 H         1 <1>         0.088547 
     47 H           1.439370   -2.333228   -1.983694 H         1 <1>         0.094133 
     48 H           2.394400   -3.073749    0.848468 H         1 <1>         0.067107 
     49 H           1.017881   -4.822836   -1.281637 H         1 <1>         0.064758 
     50 H          -0.922908   -3.015141   -1.387440 H         1 <1>         0.064677 
     51 H          -0.010259   -3.848174    1.443428 H         1 <1>         0.064673 
     52 H          -2.764999   -2.950613    0.302834 H         1 <1>         0.058744 
     53 H          -1.703660   -1.999075    1.393830 H         1 <1>         0.058744 
     54 H          -3.028824    0.064355    1.264521 H         1 <1>         0.093730 
     55 H          -3.819884    0.663333   -1.638405 H         1 <1>         0.067095 
     56 H           4.062909   -3.047332   -0.861610 H         1 <1>         0.210111 
     57 H          -4.536819    2.137540    0.957446 H         1 <1>         0.064747 
     58 H           2.526376   -5.937935    0.197360 H         1 <1>         0.210005 
     59 H          -6.862765    1.400071    0.518423 H         1 <1>         0.064300 
     60 H          -0.882211   -5.922833    0.628960 H         1 <1>         0.210004 
     61 H          -6.516365   -1.081399    0.871677 H         1 <1>         0.058735 
     62 H          -5.467038   -0.098564    1.923623 H         1 <1>         0.058735 
     63 H          -1.642069    1.354564   -0.929424 H         1 <1>         0.210110 
     64 H          -5.177168    2.841861   -1.741957 H         1 <1>         0.210005 
     65 H          -6.793540    1.092823   -1.832053 H         1 <1>         0.209989 
@<TRIPOS>BOND
     1    1   20 1    
     2   21    1 1    
     3    2   21 1    
     4   24    2 1    
     5   22    3 1    
     6    3   56 1    
     7    4   26 1    
     8   27    4 1    
     9   23    5 1    
    10    5   58 1    
    11   25    6 1    
    12    6   60 1    
    13   27    7 1    
    14    7   31 1    
    15   28    8 1    
    16    8   63 1    
    17   29    9 1    
    18    9   64 1    
    19   30   10 1    
    20   10   65 1    
    21   11   12 1    
    22   13   11 1    
    23   11   18 1    
    24   11   19 1    
    25   14   12 1    
    26   15   12 1    
    27   12   32 1    
    28   13   14 1    
    29   16   13 1    
    30   13   33 1    
    31   14   34 1    
    32   14   35 1    
    33   17   15 1    
    34   15   36 1    
    35   15   37 1    
    36   16   17 1    
    37   20   16 2    
    38   17   38 1    
    39   17   39 1    
    40   18   40 1    
    41   18   41 1    
    42   18   42 1    
    43   19   43 1    
    44   19   44 1    
    45   19   45 1    
    46   20   46 1    
    47   21   22 1    
    48   21   47 1    
    49   23   22 1    
    50   22   48 1    
    51   25   23 1    
    52   23   49 1    
    53   24   25 1    
    54   26   24 1    
    55   24   50 1    
    56   25   51 1    
    57   26   52 1    
    58   26   53 1    
    59   28   27 1    
    60   27   54 1    
    61   29   28 1    
    62   28   55 1    
    63   29   30 1    
    64   29   57 1    
    65   30   31 1    
    66   30   59 1    
    67   31   61 1    
    68   31   62 1    
@<TRIPOS>SUBSTRUCTURE
     1 ****       11 TEMP              0 ****  ****    0 ROOT 
@<TRIPOS>NORMAL
@<TRIPOS>FF_PBC
FORCE_FIELD_SETUP_FEATURE Force Field Setup information
v1.0  0 0.000000 0.000000 0.000000 0.000000 0.000000 0.000000 NONE 0 0 0 0 1 0 0 0 0 0 0 0 0
