@<TRIPOS>MOLECULE
MOL002002
   27    27     1     1     0
SMALL
GASTEIGER


@<TRIPOS>ATOM
      1 C           0.892069    1.093633   -0.606518 C.3       1 <1>         0.076552 
      2 C           1.640710   -0.216491   -0.479888 C.2       1 <1>        -0.048428 
      3 C           1.025233   -1.409431   -0.546604 C.2       1 <1>        -0.082049 
      4 C          -0.458087   -1.586074   -0.742110 C.3       1 <1>        -0.027830 
      5 C          -1.266454   -0.264412   -0.636237 C.3       1 <1>        -0.014346 
      6 C          -0.465660    0.871863   -1.323237 C.3       1 <1>        -0.016212 
      7 O           0.725191    1.644763    0.713210 O.3       1 <1>        -0.387492 
      8 C          -1.712685    0.148681    0.758019 C.2       1 <1>        -0.076228 
      9 C          -2.752035    0.982871    0.913379 C.2       1 <1>        -0.099436 
     10 C          -0.968885   -0.404201    1.957515 C.3       1 <1>        -0.043767 
     11 C           3.134106   -0.125818   -0.257131 C.3       1 <1>        -0.041374 
     12 H           1.483619    1.804739   -1.211378 H         1 <1>         0.064023 
     13 H           1.608480   -2.327358   -0.461556 H         1 <1>         0.057252 
     14 H          -0.571562   -2.009944   -1.752313 H         1 <1>         0.031315 
     15 H          -0.849594   -2.326311   -0.031018 H         1 <1>         0.031315 
     16 H          -2.191569   -0.422379   -1.219961 H         1 <1>         0.034929 
     17 H          -1.049981    1.806915   -1.339716 H         1 <1>         0.029910 
     18 H          -0.260475    0.583577   -2.368388 H         1 <1>         0.029910 
     19 H           0.225778    2.455286    0.723208 H         1 <1>         0.210218 
     20 H          -3.288398    1.383092    0.053320 H         1 <1>         0.053440 
     21 H          -3.102698    1.289472    1.897439 H         1 <1>         0.053440 
     22 H          -1.347777   -1.409223    2.191527 H         1 <1>         0.027436 
     23 H           0.111605   -0.477556    1.783321 H         1 <1>         0.027436 
     24 H          -1.110020    0.225465    2.849660 H         1 <1>         0.027436 
     25 H           3.319768    0.174426    0.784806 H         1 <1>         0.027516 
     26 H           3.638493   -1.086834   -0.435711 H         1 <1>         0.027516 
     27 H           3.593476    0.615150   -0.925675 H         1 <1>         0.027516 
@<TRIPOS>BOND
     1    1    2 1    
     2    1    6 1    
     3    1    7 1    
     4    1   12 1    
     5    2    3 2    
     6    2   11 1    
     7    3    4 1    
     8    3   13 1    
     9    4    5 1    
    10    4   14 1    
    11    4   15 1    
    12    5    6 1    
    13    5    8 1    
    14    5   16 1    
    15    6   17 1    
    16    6   18 1    
    17    7   19 1    
    18    8    9 2    
    19    8   10 1    
    20    9   20 1    
    21    9   21 1    
    22   10   22 1    
    23   10   23 1    
    24   10   24 1    
    25   11   25 1    
    26   11   26 1    
    27   11   27 1    
@<TRIPOS>SUBSTRUCTURE
     1 ****        1 TEMP              0 ****  ****    0 ROOT 
@<TRIPOS>NORMAL
@<TRIPOS>FF_PBC
FORCE_FIELD_SETUP_FEATURE Force Field Setup information
v1.0  0 0.000000 0.000000 0.000000 0.000000 0.000000 0.000000 NONE 0 0 0 0 1 0 0 0 0 0 0 0 0
