@<TRIPOS>MOLECULE
MOL004667
   23    24     1     1     0
SMALL
GASTEIGER


@<TRIPOS>ATOM
      1 O          -2.317388    1.591002   -0.225435 O.3       1 <1>        -0.271098 
      2 O           2.388279   -1.637158    0.146847 O.3       1 <1>        -0.345241 
      3 O          -2.230912   -0.859235   -1.603844 O.3       1 <1>        -0.355302 
      4 O           0.077985   -2.522599   -1.467105 O.3       1 <1>        -0.355328 
      5 O          -3.373476    3.439780    0.342183 O.2       1 <1>        -0.259479 
      6 C          -0.007712    1.221084    0.660202 C.ar      1 <1>         0.010910 
      7 C          -1.173422    0.791955   -0.143476 C.ar      1 <1>         0.125861 
      8 C           1.140896    0.412411    0.738981 C.ar      1 <1>        -0.019348 
      9 C          -1.135847   -0.441877   -0.840287 C.ar      1 <1>         0.136490 
     10 C           1.211626   -0.882727    0.022853 C.ar      1 <1>         0.108691 
     11 C           0.067227   -1.310889   -0.770407 C.ar      1 <1>         0.135318 
     12 C          -0.103646    2.543605    1.380251 C.2       1 <1>        -0.046279 
     13 C          -1.234350    3.242353    1.246384 C.2       1 <1>         0.010955 
     14 C          -2.364993    2.759441    0.428439 C.2       1 <1>         0.291655 
     15 C           2.565311   -2.909472   -0.495303 C.3       1 <1>         0.043137 
     16 H          -2.945521   -0.229455   -1.581602 H         1 <1>         0.217503 
     17 H          -0.736866   -2.663546   -1.939499 H         1 <1>         0.217503 
     18 H           1.992486    0.731827    1.329439 H         1 <1>         0.065084 
     19 H           0.723688    2.912677    1.987898 H         1 <1>         0.062608 
     20 H          -1.342590    4.202790    1.750872 H         1 <1>         0.067748 
     21 H           3.566335   -3.280090   -0.230526 H         1 <1>         0.052871 
     22 H           1.823257   -3.639989   -0.138743 H         1 <1>         0.052871 
     23 H           2.514302   -2.811657   -1.590385 H         1 <1>         0.052871 
@<TRIPOS>BOND
     1    7    1 1    
     2    1   14 1    
     3   10    2 1    
     4    2   15 1    
     5    9    3 1    
     6    3   16 1    
     7   11    4 1    
     8    4   17 1    
     9   14    5 2    
    10    7    6 1    
    11    6    8 2    
    12    6   12 1    
    13    9    7 2    
    14    8   10 1    
    15    8   18 1    
    16    9   11 1    
    17   10   11 2    
    18   12   13 2    
    19   12   19 1    
    20   13   14 1    
    21   13   20 1    
    22   15   21 1    
    23   15   22 1    
    24   15   23 1    
@<TRIPOS>SUBSTRUCTURE
     1 ****        1 TEMP              0 ****  ****    0 ROOT 
@<TRIPOS>NORMAL
@<TRIPOS>FF_PBC
FORCE_FIELD_SETUP_FEATURE Force Field Setup information
v1.0  0 0.000000 0.000000 0.000000 0.000000 0.000000 0.000000 NONE 0 0 0 0 1 0 0 0 0 0 0 0 0
