@<TRIPOS>MOLECULE
MOL008041
   39    41     1     1     0
SMALL
GASTEIGER


@<TRIPOS>ATOM
      1 O           0.613403   -0.460144   -0.063889 O.3       1 <1>        -0.305128 
      2 O          -5.038834    0.170585    0.019046 O.3       1 <1>        -0.342940 
      3 O          -3.876687   -2.404723    0.212764 O.3       1 <1>        -0.345170 
      4 O          -3.354832    2.490125   -0.184190 O.3       1 <1>        -0.356588 
      5 O           1.923668    2.878292   -0.346758 O.3       1 <1>        -0.354461 
      6 O          -0.803603    3.318461   -0.308522 O.2       1 <1>        -0.284269 
      7 O           5.802610   -0.278577    2.195664 O.3       1 <1>        -0.357261 
      8 O           7.122120   -0.707966   -0.300673 O.3       1 <1>        -0.357274 
      9 C          -1.373733    1.036978   -0.126269 C.ar      1 <1>         0.087099 
     10 C          -0.773564   -0.306641   -0.038480 C.ar      1 <1>         0.099177 
     11 C           1.465273    0.577107   -0.165919 C.2       1 <1>         0.123702 
     12 C          -2.779024    1.216316   -0.105795 C.ar      1 <1>         0.118560 
     13 C          -0.390948    2.171470   -0.234913 C.2       1 <1>         0.223152 
     14 C           1.049455    1.857193   -0.249087 C.2       1 <1>         0.151808 
     15 C          -1.599511   -1.426265    0.071250 C.ar      1 <1>         0.002266 
     16 C          -3.650328    0.019395    0.004120 C.ar      1 <1>         0.136267 
     17 C           2.935495    0.225450   -0.184389 C.ar      1 <1>         0.010729 
     18 C          -3.072498   -1.269538    0.095029 C.ar      1 <1>         0.110695 
     19 C           3.656796    0.139719    1.015517 C.ar      1 <1>        -0.019688 
     20 C           3.613072   -0.024960   -1.478409 C.ar      1 <1>        -0.049435 
     21 C           5.100430   -0.192423    0.994796 C.ar      1 <1>         0.102828 
     22 C           4.981865   -0.336510   -1.506844 C.ar      1 <1>        -0.028769 
     23 C           5.757507   -0.415851   -0.247010 C.ar      1 <1>         0.102222 
     24 C          -5.584671    0.326186    1.337568 C.3       1 <1>         0.043243 
     25 C          -4.578106   -2.771629   -0.986598 C.3       1 <1>         0.043138 
     26 H          -1.163714   -2.416474    0.138943 H         1 <1>         0.067039 
     27 H           3.163153    0.318035    1.964506 H         1 <1>         0.065076 
     28 H           3.047485    0.033477   -2.402780 H         1 <1>         0.062506 
     29 H           5.482179   -0.520959   -2.451510 H         1 <1>         0.064422 
     30 H          -2.724990    3.200299   -0.270242 H         1 <1>         0.217446 
     31 H           2.853281    2.680354   -0.353998 H         1 <1>         0.217537 
     32 H          -6.675031    0.441527    1.248755 H         1 <1>         0.052872 
     33 H          -5.172956    1.222914    1.827395 H         1 <1>         0.052872 
     34 H          -5.371893   -0.560653    1.955348 H         1 <1>         0.052872 
     35 H          -5.273481   -1.982225   -1.310183 H         1 <1>         0.052871 
     36 H          -5.157750   -3.682789   -0.777901 H         1 <1>         0.052871 
     37 H          -3.865857   -2.984485   -1.798863 H         1 <1>         0.052871 
     38 H           6.127743   -1.162103    2.332595 H         1 <1>         0.217422 
     39 H           7.585477   -0.418165    0.478025 H         1 <1>         0.217422 
@<TRIPOS>BOND
     1    1   10 1    
     2   11    1 1    
     3   16    2 1    
     4    2   24 1    
     5   18    3 1    
     6    3   25 1    
     7   12    4 1    
     8    4   30 1    
     9   14    5 1    
    10    5   31 1    
    11   13    6 2    
    12   21    7 1    
    13    7   38 1    
    14   23    8 1    
    15    8   39 1    
    16   10    9 1    
    17    9   12 2    
    18   13    9 1    
    19   10   15 2    
    20   11   14 2    
    21   17   11 1    
    22   12   16 1    
    23   14   13 1    
    24   15   18 1    
    25   15   26 1    
    26   18   16 2    
    27   19   17 2    
    28   17   20 1    
    29   21   19 1    
    30   19   27 1    
    31   20   22 2    
    32   20   28 1    
    33   21   23 2    
    34   22   23 1    
    35   22   29 1    
    36   24   32 1    
    37   24   33 1    
    38   24   34 1    
    39   25   35 1    
    40   25   36 1    
    41   25   37 1    
@<TRIPOS>SUBSTRUCTURE
     1 ****        1 TEMP              0 ****  ****    0 ROOT 
@<TRIPOS>NORMAL
@<TRIPOS>FF_PBC
FORCE_FIELD_SETUP_FEATURE Force Field Setup information
v1.0  0 0.000000 0.000000 0.000000 0.000000 0.000000 0.000000 NONE 0 0 0 0 1 0 0 0 0 0 0 0 0
