@<TRIPOS>MOLECULE
MOL002265
   58    63     1     1     0
SMALL
GASTEIGER


@<TRIPOS>ATOM
      1 C          -1.644674    2.356943    0.205370 C.ar      1 <1>         0.055780 
      2 C          -1.342825    1.041368    0.822227 C.ar      1 <1>        -0.025769 
      3 C           0.064415    0.435464    0.698530 C.3       1 <1>         0.021576 
      4 C           1.174935    1.494237    0.615040 C.ar      1 <1>        -0.025521 
      5 C           0.903377    2.811340   -0.009358 C.ar      1 <1>         0.055797 
      6 C          -0.512670    3.141266   -0.417559 C.2       1 <1>         0.198626 
      7 C           2.429128    1.219314    1.086239 C.ar      1 <1>        -0.054207 
      8 C           3.535480    2.192210    0.913169 C.ar      1 <1>        -0.047703 
      9 C           3.297953    3.369724    0.290435 C.ar      1 <1>        -0.028304 
     10 C           1.941260    3.715216   -0.193403 C.ar      1 <1>         0.083914 
     11 C          -2.930057    2.850436    0.225171 C.ar      1 <1>         0.083665 
     12 C          -4.000318    2.075537    0.904498 C.ar      1 <1>        -0.031220 
     13 C          -3.713106    0.908799    1.513131 C.ar      1 <1>        -0.059013 
     14 C          -2.334031    0.368278    1.479706 C.ar      1 <1>        -0.057128 
     15 C           1.566719   -0.933621   -0.782476 C.ar      1 <1>        -0.025769 
     16 C           2.007920   -2.223416   -0.198138 C.ar      1 <1>         0.055780 
     17 C           0.973762   -3.115739    0.444647 C.2       1 <1>         0.198627 
     18 C          -0.488935   -2.885165    0.147981 C.ar      1 <1>         0.055821 
     19 C          -0.900825   -1.585234   -0.435333 C.ar      1 <1>        -0.025032 
     20 C           0.121329   -0.446257   -0.585531 C.3       1 <1>         0.021588 
     21 C          -1.438136   -3.866339    0.392006 C.ar      1 <1>         0.084406 
     22 C          -2.848834   -3.622762    0.012050 C.ar      1 <1>        -0.018357 
     23 C          -3.218534   -2.457462   -0.576100 C.ar      1 <1>         0.049022 
     24 C          -2.201324   -1.403823   -0.813411 C.ar      1 <1>        -0.044250 
     25 C           2.469193   -0.170583   -1.472529 C.ar      1 <1>        -0.057128 
     26 C           3.888545   -0.585120   -1.569235 C.ar      1 <1>        -0.059013 
     27 C           4.304553   -1.722884   -0.981211 C.ar      1 <1>        -0.031220 
     28 C           3.344998   -2.595712   -0.265829 C.ar      1 <1>         0.083665 
     29 O           1.742220    4.955590   -0.809112 O.3       1 <1>        -0.359105 
     30 O          -0.707857    4.047332   -1.212209 O.2       1 <1>        -0.286459 
     31 O          -3.213356    4.079455   -0.374342 O.3       1 <1>        -0.359114 
     32 C           4.943465    1.864120    1.422135 C.3       1 <1>        -0.039620 
     33 O          -1.101315   -5.093435    0.972570 O.3       1 <1>        -0.359093 
     34 O           1.318621   -4.040704    1.164288 O.2       1 <1>        -0.286459 
     35 O           3.812536   -3.783393    0.306292 O.3       1 <1>        -0.359114 
     36 C          -4.656185   -2.210432   -0.981500 C.2       1 <1>         0.291326 
     37 O          -4.993364   -1.038455   -1.525898 O.3       1 <1>        -0.327489 
     38 O          -5.497325   -3.078987   -0.807587 O.2       1 <1>        -0.259428 
     39 H           0.255565   -0.197024    1.581198 H         1 <1>         0.040672 
     40 H           2.632365    0.270684    1.571943 H         1 <1>         0.062331 
     41 H           4.102427    4.081948    0.142544 H         1 <1>         0.064604 
     42 H          -5.018141    2.452176    0.918627 H         1 <1>         0.064340 
     43 H          -4.493053    0.352112    2.024243 H         1 <1>         0.061846 
     44 H          -2.129892   -0.579808    1.967816 H         1 <1>         0.062069 
     45 H          -0.156914    0.165709   -1.459515 H         1 <1>         0.040672 
     46 H          -3.580194   -4.399492    0.208743 H         1 <1>         0.065115 
     47 H          -2.508638   -0.470682   -1.274519 H         1 <1>         0.062839 
     48 H           2.164217    0.761316   -1.938248 H         1 <1>         0.062069 
     49 H           4.593583    0.040447   -2.108483 H         1 <1>         0.061846 
     50 H           5.347948   -2.016948   -1.032798 H         1 <1>         0.064340 
     51 H           0.883694    5.065235   -1.208234 H         1 <1>         0.217340 
     52 H          -4.126672    4.335487   -0.320799 H         1 <1>         0.217340 
     53 H           5.322836    2.695546    2.035476 H         1 <1>         0.027754 
     54 H           4.947556    0.948903    2.032501 H         1 <1>         0.027754 
     55 H           5.610709    1.716937    0.559769 H         1 <1>         0.027754 
     56 H          -0.212186   -5.143004    1.311819 H         1 <1>         0.217340 
     57 H           3.178740   -4.235216    0.855762 H         1 <1>         0.217340 
     58 H          -5.918491   -0.992834   -1.742567 H         1 <1>         0.220555 
@<TRIPOS>BOND
     1    2    1 1    
     2    1    6 1    
     3    1   11 2    
     4    3    2 1    
     5    2   14 2    
     6    3    4 1    
     7   20    3 1    
     8    3   39 1    
     9    4    5 1    
    10    4    7 2    
    11    5    6 1    
    12    5   10 2    
    13    6   30 2    
    14    7    8 1    
    15    7   40 1    
    16    8    9 2    
    17    8   32 1    
    18   10    9 1    
    19    9   41 1    
    20   10   29 1    
    21   11   12 1    
    22   11   31 1    
    23   13   12 2    
    24   12   42 1    
    25   14   13 1    
    26   13   43 1    
    27   14   44 1    
    28   15   16 1    
    29   15   20 1    
    30   15   25 2    
    31   16   17 1    
    32   16   28 2    
    33   17   18 1    
    34   17   34 2    
    35   18   19 1    
    36   18   21 2    
    37   19   20 1    
    38   19   24 2    
    39   20   45 1    
    40   21   22 1    
    41   21   33 1    
    42   22   23 2    
    43   22   46 1    
    44   23   24 1    
    45   23   36 1    
    46   24   47 1    
    47   25   26 1    
    48   25   48 1    
    49   26   27 2    
    50   26   49 1    
    51   27   28 1    
    52   27   50 1    
    53   28   35 1    
    54   29   51 1    
    55   31   52 1    
    56   32   53 1    
    57   32   54 1    
    58   32   55 1    
    59   33   56 1    
    60   35   57 1    
    61   36   37 1    
    62   36   38 2    
    63   37   58 1    
@<TRIPOS>SUBSTRUCTURE
     1 ****       15 TEMP              0 ****  ****    0 ROOT 
@<TRIPOS>NORMAL
@<TRIPOS>FF_PBC
FORCE_FIELD_SETUP_FEATURE Force Field Setup information
v1.0  0 0.000000 0.000000 0.000000 0.000000 0.000000 0.000000 NONE 0 0 0 0 1 0 0 0 0 0 0 0 0
