@<TRIPOS>MOLECULE
MOL001246
   24    25     1     1     0
SMALL
GASTEIGER


@<TRIPOS>ATOM
      1 C          -0.427514    1.157323    0.188902 C.3       1 <1>         0.023151 
      2 C          -1.769885    0.492059    0.000569 C.2       1 <1>         0.136949 
      3 C          -1.904398   -0.926028    0.514408 C.3       1 <1>         0.006387 
      4 C          -0.515032   -1.603050    0.767808 C.3       1 <1>        -0.042994 
      5 C           0.635964   -0.554703    0.790076 C.3       1 <1>        -0.034203 
      6 C           0.659222    0.300433   -0.509982 C.3       1 <1>        -0.022531 
      7 C           0.121609    0.689814    1.561990 C.3       1 <1>        -0.039648 
      8 O          -2.702078    1.070802   -0.533323 O.2       1 <1>        -0.297097 
      9 C           2.005070    1.066210   -0.699208 C.3       1 <1>        -0.058917 
     10 C           0.274122   -0.380854   -1.858964 C.3       1 <1>        -0.058917 
     11 H          -0.411697    2.240871   -0.008170 H         1 <1>         0.038268 
     12 H          -2.475434   -0.859532    1.454439 H         1 <1>         0.034171 
     13 H          -2.504139   -1.524554   -0.189812 H         1 <1>         0.034171 
     14 H          -0.286443   -2.356805   -0.002500 H         1 <1>         0.027210 
     15 H          -0.531927   -2.130599    1.736042 H         1 <1>         0.027210 
     16 H           1.610463   -0.958752    1.110513 H         1 <1>         0.030643 
     17 H           0.926261    1.331424    1.952596 H         1 <1>         0.027495 
     18 H          -0.616960    0.513879    2.360361 H         1 <1>         0.027495 
     19 H           2.782173    0.359840   -1.028668 H         1 <1>         0.023526 
     20 H           2.374166    1.563876    0.207310 H         1 <1>         0.023526 
     21 H           1.884309    1.837216   -1.475334 H         1 <1>         0.023526 
     22 H           0.243875    0.381563   -2.651845 H         1 <1>         0.023526 
     23 H           1.043048   -1.123882   -2.118927 H         1 <1>         0.023526 
     24 H          -0.698278   -0.888662   -1.867810 H         1 <1>         0.023526 
@<TRIPOS>BOND
     1    1    2 1    
     2    1    6 1    
     3    1    7 1    
     4    1   11 1    
     5    2    3 1    
     6    2    8 2    
     7    3    4 1    
     8    3   12 1    
     9    3   13 1    
    10    4    5 1    
    11    4   14 1    
    12    4   15 1    
    13    5    6 1    
    14    5    7 1    
    15    5   16 1    
    16    6    9 1    
    17    6   10 1    
    18    7   17 1    
    19    7   18 1    
    20    9   19 1    
    21    9   20 1    
    22    9   21 1    
    23   10   22 1    
    24   10   23 1    
    25   10   24 1    
@<TRIPOS>SUBSTRUCTURE
     1 ****        1 TEMP              0 ****  ****    0 ROOT 
@<TRIPOS>NORMAL
@<TRIPOS>FF_PBC
FORCE_FIELD_SETUP_FEATURE Force Field Setup information
v1.0  0 0.000000 0.000000 0.000000 0.000000 0.000000 0.000000 NONE 0 0 0 0 1 0 0 0 0 0 0 0 0
