@<TRIPOS>MOLECULE
MOL004991
   36    38     1     1     0
SMALL
GASTEIGER


@<TRIPOS>ATOM
      1 C          -3.531647    0.665637   -0.476710 C.ar      1 <1>         0.088626 
      2 C          -2.977652    2.018998   -0.212066 C.ar      1 <1>        -0.030235 
      3 C          -1.612931    2.157063    0.096963 C.ar      1 <1>        -0.045956 
      4 C          -0.757311    0.950328    0.155431 C.ar      1 <1>         0.052926 
      5 C          -1.266407   -0.310204   -0.108263 C.ar      1 <1>         0.095933 
      6 C          -2.702145   -0.456338   -0.434221 C.ar      1 <1>         0.000158 
      7 C           0.707414    1.006956    0.501175 C.2       1 <1>         0.198352 
      8 C           1.557985   -0.169938    0.173020 C.2       1 <1>         0.055478 
      9 C           0.912693   -1.332445   -0.080673 C.2       1 <1>         0.068731 
     10 O          -0.430740   -1.423407   -0.072592 O.3       1 <1>        -0.312327 
     11 O           1.099841    2.021615    1.047848 O.2       1 <1>        -0.286469 
     12 C           3.069133    0.037070    0.149174 C.ar      1 <1>        -0.012033 
     13 C           4.072013   -1.045406    0.367459 C.ar      1 <1>        -0.053842 
     14 C           5.452793   -0.800947    0.290344 C.ar      1 <1>        -0.061182 
     15 C           5.965188    0.564992    0.044017 C.ar      1 <1>        -0.061723 
     16 C           5.056367    1.604259   -0.120189 C.ar      1 <1>        -0.061182 
     17 C           3.599107    1.329719   -0.098270 C.ar      1 <1>        -0.053842 
     18 O          -4.882141    0.500114   -0.756702 O.3       1 <1>        -0.277845 
     19 C          -5.530386   -0.038584    0.279199 C.2       1 <1>         0.263997 
     20 C          -6.895916   -0.595942    0.014087 C.3       1 <1>         0.021811 
     21 O          -5.055818   -0.119705    1.401379 O.2       1 <1>        -0.264888 
     22 C           1.484769   -2.687190   -0.428740 C.3       1 <1>        -0.016791 
     23 H          -3.620650    2.894035   -0.251154 H         1 <1>         0.064366 
     24 H          -1.175350    3.136468    0.288574 H         1 <1>         0.062621 
     25 H          -3.120495   -1.434806   -0.633873 H         1 <1>         0.066970 
     26 H           3.777301   -2.058038    0.598050 H         1 <1>         0.062364 
     27 H           6.154789   -1.619551    0.421650 H         1 <1>         0.061776 
     28 H           7.030433    0.763128   -0.002907 H         1 <1>         0.061759 
     29 H           5.410520    2.620117   -0.271034 H         1 <1>         0.061776 
     30 H           2.954194    2.176334   -0.296256 H         1 <1>         0.062364 
     31 H          -6.835142   -1.690392    0.136273 H         1 <1>         0.033035 
     32 H          -7.281192   -0.364264   -0.992144 H         1 <1>         0.033035 
     33 H          -7.578889   -0.184832    0.773199 H         1 <1>         0.033035 
     34 H           0.725071   -3.321109   -0.909929 H         1 <1>         0.029733 
     35 H           1.794699   -3.213279    0.482622 H         1 <1>         0.029733 
     36 H           2.315297   -2.605030   -1.139441 H         1 <1>         0.029733 
@<TRIPOS>BOND
     1    1    2 1    
     2    1    6 2    
     3    1   18 1    
     4    2    3 2    
     5    2   23 1    
     6    3    4 1    
     7    3   24 1    
     8    4    5 2    
     9    4    7 1    
    10    5    6 1    
    11    5   10 1    
    12    6   25 1    
    13    7    8 1    
    14    7   11 2    
    15    8    9 2    
    16    8   12 1    
    17    9   10 1    
    18    9   22 1    
    19   12   13 1    
    20   12   17 2    
    21   13   14 2    
    22   13   26 1    
    23   14   15 1    
    24   14   27 1    
    25   15   16 2    
    26   15   28 1    
    27   16   17 1    
    28   16   29 1    
    29   17   30 1    
    30   18   19 1    
    31   19   20 1    
    32   19   21 2    
    33   20   31 1    
    34   20   32 1    
    35   20   33 1    
    36   22   34 1    
    37   22   35 1    
    38   22   36 1    
@<TRIPOS>SUBSTRUCTURE
     1 ****        1 TEMP              0 ****  ****    0 ROOT 
@<TRIPOS>NORMAL
@<TRIPOS>FF_PBC
FORCE_FIELD_SETUP_FEATURE Force Field Setup information
v1.0  0 0.000000 0.000000 0.000000 0.000000 0.000000 0.000000 NONE 0 0 0 0 1 0 0 0 0 0 0 0 0
