@<TRIPOS>MOLECULE
MOL000858
   61    60     1     1     0
SMALL
GASTEIGER


@<TRIPOS>ATOM
      1 C           6.561742    3.439636   -3.337531 C.3       1 <1>         0.085113 
      2 C           7.864222    4.166116   -2.912458 C.3       1 <1>         0.102008 
      3 O           7.767661    4.506022   -1.514252 O.3       1 <1>        -0.387224 
      4 C           9.104278    3.266472   -3.161262 C.3       1 <1>         0.072312 
      5 O           9.178418    2.923953   -4.557929 O.3       1 <1>        -0.392387 
      6 C           4.261247    3.803861   -3.506635 C.2       1 <1>         0.262238 
      7 C           3.081057    4.725719   -3.338598 C.3       1 <1>         0.033200 
      8 C           1.718981    3.979932   -3.282611 C.3       1 <1>        -0.044055 
      9 C           1.600650    3.087447   -2.015716 C.3       1 <1>        -0.052596 
     10 C           0.236568    2.345458   -1.971844 C.3       1 <1>        -0.053045 
     11 C           0.119846    1.452969   -0.705784 C.3       1 <1>        -0.053057 
     12 C          -1.235657    0.695263   -0.667318 C.3       1 <1>        -0.053057 
     13 C          -1.346413   -0.198824    0.598171 C.3       1 <1>        -0.053057 
     14 C          -2.693115   -0.972258    0.630858 C.3       1 <1>        -0.053057 
     15 C          -2.797838   -1.870236    1.894054 C.3       1 <1>        -0.053057 
     16 C          -4.136528   -2.657627    1.920956 C.3       1 <1>        -0.053057 
     17 C          -4.234777   -3.561496    3.180460 C.3       1 <1>        -0.053057 
     18 C          -5.563961   -4.365075    3.199403 C.3       1 <1>        -0.053065 
     19 C          -5.656581   -5.275274    4.454739 C.3       1 <1>        -0.053306 
     20 C          -6.978249   -6.090728    4.466021 C.3       1 <1>        -0.055911 
     21 C          -7.067098   -7.003495    5.716773 C.3       1 <1>        -0.065276 
     22 O           4.136167    2.658047   -3.910790 O.2       1 <1>        -0.264974 
     23 O           5.446573    4.345164   -3.190359 O.3       1 <1>        -0.312540 
     24 H           6.645394    3.113200   -4.387849 H         1 <1>         0.059240 
     25 H           6.430706    2.554954   -2.692635 H         1 <1>         0.059240 
     26 H           7.951380    5.081258   -3.524751 H         1 <1>         0.063932 
     27 H           8.508441    5.011681   -1.194944 H         1 <1>         0.209975 
     28 H           9.016254    2.358692   -2.540800 H         1 <1>         0.058350 
     29 H          10.014255    3.811883   -2.858440 H         1 <1>         0.058350 
     30 H           9.922969    2.367481   -4.768679 H         1 <1>         0.209508 
     31 H           3.215058    5.322849   -2.422745 H         1 <1>         0.036606 
     32 H           3.084551    5.412849   -4.199392 H         1 <1>         0.036606 
     33 H           0.906341    4.725564   -3.269693 H         1 <1>         0.027004 
     34 H           1.601523    3.364277   -4.189673 H         1 <1>         0.027004 
     35 H           2.412917    2.343168   -2.005079 H         1 <1>         0.026540 
     36 H           1.701346    3.716934   -1.116239 H         1 <1>         0.026540 
     37 H          -0.582399    3.083472   -1.974381 H         1 <1>         0.026529 
     38 H           0.136974    1.715881   -2.871418 H         1 <1>         0.026529 
     39 H           0.944474    0.721203   -0.699737 H         1 <1>         0.026528 
     40 H           0.211134    2.083197    0.194159 H         1 <1>         0.026528 
     41 H          -2.062642    1.424333   -0.672681 H         1 <1>         0.026528 
     42 H          -1.325201    0.064938   -1.567435 H         1 <1>         0.026528 
     43 H          -0.513056   -0.920589    0.607336 H         1 <1>         0.026528 
     44 H          -1.266180    0.432304    1.498540 H         1 <1>         0.026528 
     45 H          -3.528265   -0.252613    0.624110 H         1 <1>         0.026528 
     46 H          -2.772537   -1.601801   -0.270734 H         1 <1>         0.026528 
     47 H          -1.957115   -2.583373    1.903416 H         1 <1>         0.026528 
     48 H          -2.726440   -1.240762    2.796335 H         1 <1>         0.026528 
     49 H          -4.979120   -1.946668    1.914965 H         1 <1>         0.026528 
     50 H          -4.207364   -3.284537    1.016849 H         1 <1>         0.026528 
     51 H          -3.385705   -4.264647    3.190426 H         1 <1>         0.026528 
     52 H          -4.174235   -2.934369    4.085172 H         1 <1>         0.026528 
     53 H          -6.414758   -3.663908    3.193104 H         1 <1>         0.026528 
     54 H          -5.624360   -4.989351    2.292676 H         1 <1>         0.026528 
     55 H          -4.801383   -5.970959    4.464921 H         1 <1>         0.026520 
     56 H          -5.605171   -4.651666    5.362468 H         1 <1>         0.026520 
     57 H          -7.838210   -5.400335    4.461287 H         1 <1>         0.026265 
     58 H          -7.033480   -6.716750    3.559751 H         1 <1>         0.026265 
     59 H          -8.009859   -7.573161    5.704117 H         1 <1>         0.022978 
     60 H          -6.227814   -7.716299    5.732900 H         1 <1>         0.022978 
     61 H          -7.035519   -6.399073    6.636723 H         1 <1>         0.022978 
@<TRIPOS>BOND
     1    1    2 1    
     2   23    1 1    
     3    1   24 1    
     4    1   25 1    
     5    2    3 1    
     6    2    4 1    
     7    2   26 1    
     8    3   27 1    
     9    4    5 1    
    10    4   28 1    
    11    4   29 1    
    12    5   30 1    
    13    6    7 1    
    14    6   22 2    
    15    6   23 1    
    16    7    8 1    
    17    7   31 1    
    18    7   32 1    
    19    8    9 1    
    20    8   33 1    
    21    8   34 1    
    22    9   10 1    
    23    9   35 1    
    24    9   36 1    
    25   10   11 1    
    26   10   37 1    
    27   10   38 1    
    28   11   12 1    
    29   11   39 1    
    30   11   40 1    
    31   12   13 1    
    32   12   41 1    
    33   12   42 1    
    34   13   14 1    
    35   13   43 1    
    36   13   44 1    
    37   14   15 1    
    38   14   45 1    
    39   14   46 1    
    40   15   16 1    
    41   15   47 1    
    42   15   48 1    
    43   16   17 1    
    44   16   49 1    
    45   16   50 1    
    46   17   18 1    
    47   17   51 1    
    48   17   52 1    
    49   18   19 1    
    50   18   53 1    
    51   18   54 1    
    52   19   20 1    
    53   19   55 1    
    54   19   56 1    
    55   20   21 1    
    56   20   57 1    
    57   20   58 1    
    58   21   59 1    
    59   21   60 1    
    60   21   61 1    
@<TRIPOS>SUBSTRUCTURE
     1 ****        6 TEMP              0 ****  ****    0 ROOT 
@<TRIPOS>NORMAL
@<TRIPOS>FF_PBC
FORCE_FIELD_SETUP_FEATURE Force Field Setup information
v1.0  0 0.000000 0.000000 0.000000 0.000000 0.000000 0.000000 NONE 0 0 0 0 1 0 0 0 0 0 0 0 0
