@<TRIPOS>MOLECULE
MOL003443
   29    28     1     1     0
SMALL
GASTEIGER


@<TRIPOS>ATOM
      1 O          -1.115300    6.596661    0.000014 O.2       1 <1>        -0.296330 
      2 C          -0.022636   -1.497577   -0.000106 C.3       1 <1>        -0.053056 
      3 C           0.237828    0.033648    0.000094 C.3       1 <1>        -0.052779 
      4 C           1.309170   -2.297089    0.000085 C.3       1 <1>        -0.053306 
      5 C          -1.092321    0.835996   -0.000077 C.3       1 <1>        -0.049606 
      6 C           1.050549   -3.828461   -0.000134 C.3       1 <1>        -0.055911 
      7 C          -0.829340    2.366543    0.000102 C.3       1 <1>        -0.034373 
      8 C           2.381193   -4.625251    0.000075 C.3       1 <1>        -0.065276 
      9 C          -2.112614    3.163605   -0.000059 C.2       1 <1>        -0.080990 
     10 C          -2.146742    4.503710   -0.000069 C.2       1 <1>        -0.026368 
     11 C          -0.963972    5.385921    0.000078 C.2       1 <1>         0.142804 
     12 H          -0.609301   -1.767517   -0.893593 H         1 <1>         0.026528 
     13 H          -0.609657   -1.767690    0.893081 H         1 <1>         0.026528 
     14 H           0.825187    0.302405    0.893524 H         1 <1>         0.026538 
     15 H           0.825526    0.302581   -0.893073 H         1 <1>         0.026538 
     16 H           1.896316   -2.027933    0.893545 H         1 <1>         0.026520 
     17 H           1.896690   -2.027742   -0.893086 H         1 <1>         0.026520 
     18 H          -1.680151    0.569396   -0.894198 H         1 <1>         0.026822 
     19 H          -1.680471    0.569237    0.893777 H         1 <1>         0.026822 
     20 H           0.466049   -4.104213   -0.893758 H         1 <1>         0.026265 
     21 H           0.465658   -4.104401    0.893167 H         1 <1>         0.026265 
     22 H          -0.245457    2.630962    0.896317 H         1 <1>         0.030742 
     23 H          -0.245132    2.631108   -0.895860 H         1 <1>         0.030742 
     24 H           2.175088   -5.707437   -0.000092 H         1 <1>         0.022978 
     25 H           2.974609   -4.382046    0.895307 H         1 <1>         0.022978 
     26 H           2.975010   -4.381850   -0.894841 H         1 <1>         0.022978 
     27 H          -3.062451    2.624884   -0.000168 H         1 <1>         0.057298 
     28 H          -3.117303    5.002588   -0.000195 H         1 <1>         0.064624 
     29 H           0.054174    4.999964    0.000246 H         1 <1>         0.107505 
@<TRIPOS>BOND
     1   11    1 2    
     2    3    2 1    
     3    2    4 1    
     4    2   12 1    
     5    2   13 1    
     6    5    3 1    
     7    3   14 1    
     8    3   15 1    
     9    4    6 1    
    10    4   16 1    
    11    4   17 1    
    12    7    5 1    
    13    5   18 1    
    14    5   19 1    
    15    6    8 1    
    16    6   20 1    
    17    6   21 1    
    18    9    7 1    
    19    7   22 1    
    20    7   23 1    
    21    8   24 1    
    22    8   25 1    
    23    8   26 1    
    24   10    9 2    
    25    9   27 1    
    26   10   11 1    
    27   10   28 1    
    28   11   29 1    
@<TRIPOS>SUBSTRUCTURE
     1 ****        2 TEMP              0 ****  ****    0 ROOT 
@<TRIPOS>NORMAL
@<TRIPOS>FF_PBC
FORCE_FIELD_SETUP_FEATURE Force Field Setup information
v1.0  0 0.000000 0.000000 0.000000 0.000000 0.000000 0.000000 NONE 0 0 0 0 1 0 0 0 0 0 0 0 0
