@<TRIPOS>MOLECULE
MOL000125
   26    27     1     1     0
SMALL
GASTEIGER


@<TRIPOS>ATOM
      1 C          -0.082490   -0.363730   -0.919671 C.3       1 <1>        -0.014476 
      2 C           0.930730    0.761081   -0.874843 C.2       1 <1>        -0.072915 
      3 C           2.109797    0.675207   -1.810214 C.3       1 <1>        -0.043506 
      4 C           0.716051    1.764831   -0.009244 C.2       1 <1>        -0.084465 
      5 C          -0.503356    1.714061    0.892285 C.3       1 <1>        -0.031144 
      6 C          -1.322538    0.424513    0.588820 C.3       1 <1>        -0.031352 
      7 C          -1.460726    0.347868   -0.956120 C.3       1 <1>        -0.042393 
      8 C          -0.400212   -0.828411    0.528304 C.3       1 <1>        -0.025265 
      9 C          -1.199318   -2.167709    0.575538 C.3       1 <1>        -0.059007 
     10 C           0.790747   -0.923127    1.531705 C.3       1 <1>        -0.059007 
     11 H           0.086035   -1.149057   -1.673602 H         1 <1>         0.035088 
     12 H           2.790521    1.531521   -1.690747 H         1 <1>         0.027445 
     13 H           1.751593    0.654140   -2.850320 H         1 <1>         0.027445 
     14 H           2.670483   -0.249094   -1.605297 H         1 <1>         0.027445 
     15 H           1.402029    2.608904    0.063437 H         1 <1>         0.057172 
     16 H          -1.131477    2.598759    0.703279 H         1 <1>         0.031025 
     17 H          -0.201295    1.726969    1.950800 H         1 <1>         0.031025 
     18 H          -2.253701    0.321115    1.169155 H         1 <1>         0.030925 
     19 H          -2.284119   -0.295905   -1.300549 H         1 <1>         0.027406 
     20 H          -1.502363    1.307132   -1.498877 H         1 <1>         0.027406 
     21 H          -0.539679   -2.998996    0.283967 H         1 <1>         0.023525 
     22 H          -1.549950   -2.345983    1.603369 H         1 <1>         0.023525 
     23 H          -2.078261   -2.197884   -0.081384 H         1 <1>         0.023525 
     24 H           1.469226   -0.061412    1.547172 H         1 <1>         0.023525 
     25 H           0.392081   -1.049838    2.549393 H         1 <1>         0.023525 
     26 H           1.400190   -1.804956    1.283447 H         1 <1>         0.023525 
@<TRIPOS>BOND
     1    1    2 1    
     2    1    7 1    
     3    1    8 1    
     4    1   11 1    
     5    2    3 1    
     6    2    4 2    
     7    3   12 1    
     8    3   13 1    
     9    3   14 1    
    10    4    5 1    
    11    4   15 1    
    12    5    6 1    
    13    5   16 1    
    14    5   17 1    
    15    6    7 1    
    16    6    8 1    
    17    6   18 1    
    18    7   19 1    
    19    7   20 1    
    20    8    9 1    
    21    8   10 1    
    22    9   21 1    
    23    9   22 1    
    24    9   23 1    
    25   10   24 1    
    26   10   25 1    
    27   10   26 1    
@<TRIPOS>SUBSTRUCTURE
     1 ****        1 TEMP              0 ****  ****    0 ROOT 
@<TRIPOS>NORMAL
@<TRIPOS>FF_PBC
FORCE_FIELD_SETUP_FEATURE Force Field Setup information
v1.0  0 0.000000 0.000000 0.000000 0.000000 0.000000 0.000000 NONE 0 0 0 0 1 0 0 0 0 0 0 0 0
