@<TRIPOS>MOLECULE
MOL011544
   39    41     1     1     0
SMALL
GASTEIGER


@<TRIPOS>ATOM
      1 C           0.433501   -1.046460   -0.276814 C.3       1 <1>        -0.025743 
      2 C          -0.622735   -0.327066   -1.173048 C.3       1 <1>        -0.028069 
      3 C          -1.261114    0.788613   -0.276253 C.3       1 <1>        -0.007946 
      4 C          -0.590514   -1.321983    0.843411 C.3       1 <1>        -0.016025 
      5 C           1.786655   -0.343259    0.092929 C.3       1 <1>        -0.031234 
      6 C          -1.623017   -1.509416   -1.352892 C.3       1 <1>        -0.048590 
      7 C          -1.130394    0.066342    1.041165 C.2       1 <1>        -0.067068 
      8 C          -1.698485   -2.104968    0.084832 C.3       1 <1>        -0.045937 
      9 C          -0.510916    2.153429   -0.358547 C.3       1 <1>        -0.043639 
     10 C           1.678585    1.139950    0.573318 C.3       1 <1>        -0.047565 
     11 C           1.035262    2.112889   -0.446616 C.3       1 <1>        -0.051772 
     12 C          -2.770573    1.082985   -0.542817 C.3       1 <1>        -0.055579 
     13 C           2.735669   -0.449904   -1.148184 C.3       1 <1>        -0.059532 
     14 C           2.475883   -1.140346    1.247039 C.3       1 <1>        -0.059532 
     15 C          -1.458265    0.569179    2.237577 C.2       1 <1>        -0.098645 
     16 H           0.742030   -2.016708   -0.706584 H         1 <1>         0.031460 
     17 H          -0.259661    0.044990   -2.143500 H         1 <1>         0.031212 
     18 H          -0.235953   -1.839049    1.748076 H         1 <1>         0.034863 
     19 H          -1.187181   -2.246247   -2.050063 H         1 <1>         0.026847 
     20 H          -2.598315   -1.234634   -1.779055 H         1 <1>         0.026847 
     21 H          -2.682354   -1.967278    0.561616 H         1 <1>         0.027115 
     22 H          -1.469613   -3.183906    0.073723 H         1 <1>         0.027115 
     23 H          -0.792605    2.755182    0.520235 H         1 <1>         0.027366 
     24 H          -0.860626    2.700329   -1.250698 H         1 <1>         0.027366 
     25 H           2.705154    1.495859    0.763846 H         1 <1>         0.027052 
     26 H           1.146346    1.217756    1.532835 H         1 <1>         0.027052 
     27 H           1.353579    1.887761   -1.472923 H         1 <1>         0.026572 
     28 H           1.392725    3.136617   -0.234488 H         1 <1>         0.026572 
     29 H          -3.097140    1.965384    0.028596 H         1 <1>         0.023820 
     30 H          -2.929208    1.289743   -1.612256 H         1 <1>         0.023820 
     31 H          -3.430335    0.259064   -0.236523 H         1 <1>         0.023820 
     32 H           3.041398   -1.494329   -1.316404 H         1 <1>         0.023508 
     33 H           3.653267    0.140042   -1.002075 H         1 <1>         0.023508 
     34 H           2.253330   -0.113152   -2.075619 H         1 <1>         0.023508 
     35 H           3.506527   -0.785247    1.402588 H         1 <1>         0.023508 
     36 H           2.521531   -2.216440    1.018898 H         1 <1>         0.023508 
     37 H           1.939456   -1.016054    2.199056 H         1 <1>         0.023508 
     38 H          -1.860207    1.574687    2.346740 H         1 <1>         0.053466 
     39 H          -1.331989   -0.026256    3.140780 H         1 <1>         0.053466 
@<TRIPOS>BOND
     1    1    2 1    
     2    1    4 1    
     3    1    5 1    
     4    1   16 1    
     5    2    3 1    
     6    2    6 1    
     7    2   17 1    
     8    3    7 1    
     9    3    9 1    
    10    3   12 1    
    11    4    7 1    
    12    4    8 1    
    13    4   18 1    
    14    5   10 1    
    15    5   13 1    
    16    5   14 1    
    17    6    8 1    
    18    6   19 1    
    19    6   20 1    
    20    7   15 2    
    21    8   21 1    
    22    8   22 1    
    23    9   11 1    
    24    9   23 1    
    25    9   24 1    
    26   10   11 1    
    27   10   25 1    
    28   10   26 1    
    29   11   27 1    
    30   11   28 1    
    31   12   29 1    
    32   12   30 1    
    33   12   31 1    
    34   13   32 1    
    35   13   33 1    
    36   13   34 1    
    37   14   35 1    
    38   14   36 1    
    39   14   37 1    
    40   15   38 1    
    41   15   39 1    
@<TRIPOS>SUBSTRUCTURE
     1 ****        1 TEMP              0 ****  ****    0 ROOT 
@<TRIPOS>NORMAL
@<TRIPOS>FF_PBC
FORCE_FIELD_SETUP_FEATURE Force Field Setup information
v1.0  0 0.000000 0.000000 0.000000 0.000000 0.000000 0.000000 NONE 0 0 0 0 1 0 0 0 0 0 0 0 0
