@<TRIPOS>MOLECULE
MOL001889
   55    54     1     1     0
SMALL
GASTEIGER


@<TRIPOS>ATOM
      1 C          -4.497562    8.794993    0.000016 C.2       1 <1>         0.261905 
      2 C          -3.212504    8.008766   -0.000058 C.3       1 <1>         0.033189 
      3 C          -3.448211    6.473813    0.000078 C.3       1 <1>        -0.044055 
      4 C          -2.104367    5.694490   -0.000013 C.3       1 <1>        -0.052596 
      5 C          -2.340544    4.159116    0.000086 C.3       1 <1>        -0.053036 
      6 C          -0.996979    3.379324   -0.000076 C.3       1 <1>        -0.052779 
      7 C          -1.235015    1.844351   -0.000011 C.3       1 <1>        -0.049616 
      8 C           0.105374    1.060988   -0.000417 C.3       1 <1>        -0.034751 
      9 C          -0.113651   -0.433349   -0.000342 C.2       1 <1>        -0.087640 
     10 C           0.911115   -1.295828    0.000354 C.2       1 <1>        -0.084202 
     11 C           0.686014   -2.789972    0.000463 C.3       1 <1>        -0.016545 
     12 C           1.964583   -3.594698    0.000309 C.2       1 <1>        -0.084202 
     13 C           1.951244   -4.934091   -0.000343 C.2       1 <1>        -0.087640 
     14 C           3.229978   -5.737696   -0.000463 C.3       1 <1>        -0.034751 
     15 C           2.961841   -7.266764   -0.000027 C.3       1 <1>        -0.049624 
     16 C           4.289771   -8.072649   -0.000112 C.3       1 <1>        -0.053028 
     17 C           4.024761   -9.602755    0.000175 C.3       1 <1>        -0.055902 
     18 C           5.352855  -10.403741    0.000064 C.3       1 <1>        -0.065276 
     19 O          -5.590588    8.249704    0.000200 O.2       1 <1>        -0.264985 
     20 O          -4.337795   10.126922   -0.000136 O.3       1 <1>        -0.318522 
     21 C          -5.577057   10.862434   -0.000038 C.3       1 <1>         0.045865 
     22 H          -2.637321    8.296765   -0.893901 H         1 <1>         0.036606 
     23 H          -2.637106    8.296925    0.893594 H         1 <1>         0.036606 
     24 H          -4.032350    6.198678    0.893984 H         1 <1>         0.027004 
     25 H          -4.032626    6.198534   -0.893620 H         1 <1>         0.027004 
     26 H          -1.521624    5.973205   -0.893520 H         1 <1>         0.026540 
     27 H          -1.521327    5.973357    0.893272 H         1 <1>         0.026540 
     28 H          -2.923425    3.880035    0.893368 H         1 <1>         0.026529 
     29 H          -2.923805    3.879911   -0.892929 H         1 <1>         0.026529 
     30 H          -0.413818    3.657260   -0.893427 H         1 <1>         0.026538 
     31 H          -0.413430    3.657344    0.893004 H         1 <1>         0.026538 
     32 H          -1.816193    1.564162    0.894233 H         1 <1>         0.026822 
     33 H          -1.816764    1.564131   -0.893899 H         1 <1>         0.026822 
     34 H           0.689447    1.331917   -0.894737 H         1 <1>         0.030732 
     35 H           0.690082    1.332027    0.893456 H         1 <1>         0.030732 
     36 H          -1.131753   -0.825384   -0.000871 H         1 <1>         0.056905 
     37 H           1.925120   -0.894193    0.000865 H         1 <1>         0.057203 
     38 H           0.101657   -3.058200   -0.893792 H         1 <1>         0.034961 
     39 H           0.102092   -3.058029    0.895046 H         1 <1>         0.034961 
     40 H           2.930096   -3.087420    0.000756 H         1 <1>         0.057203 
     41 H           0.991479   -5.452932   -0.000810 H         1 <1>         0.056905 
     42 H           3.814743   -5.468148   -0.894733 H         1 <1>         0.030732 
     43 H           3.815285   -5.467714    0.893333 H         1 <1>         0.030732 
     44 H           2.373056   -7.530335    0.894357 H         1 <1>         0.026822 
     45 H           2.372646   -7.530781   -0.894003 H         1 <1>         0.026822 
     46 H           4.877886   -7.805903   -0.893640 H         1 <1>         0.026529 
     47 H           4.878241   -7.805586    0.893101 H         1 <1>         0.026529 
     48 H           3.439163   -9.875979    0.893879 H         1 <1>         0.026265 
     49 H           3.438821   -9.876285   -0.893220 H         1 <1>         0.026265 
     50 H           5.143556  -11.485266    0.000258 H         1 <1>         0.022978 
     51 H           5.947180  -10.162477   -0.895104 H         1 <1>         0.022978 
     52 H           5.947502  -10.162225    0.894949 H         1 <1>         0.022978 
     53 H          -5.332484   11.934782   -0.000176 H         1 <1>         0.052962 
     54 H          -6.173862   10.642093   -0.899714 H         1 <1>         0.052962 
     55 H          -6.173626   10.642272    0.899835 H         1 <1>         0.052962 
@<TRIPOS>BOND
     1    1    2 1    
     2    1   19 2    
     3    1   20 1    
     4    2    3 1    
     5    2   22 1    
     6    2   23 1    
     7    3    4 1    
     8    3   24 1    
     9    3   25 1    
    10    4    5 1    
    11    4   26 1    
    12    4   27 1    
    13    5    6 1    
    14    5   28 1    
    15    5   29 1    
    16    6    7 1    
    17    6   30 1    
    18    6   31 1    
    19    7    8 1    
    20    7   32 1    
    21    7   33 1    
    22    8    9 1    
    23    8   34 1    
    24    8   35 1    
    25    9   10 2    
    26    9   36 1    
    27   10   11 1    
    28   10   37 1    
    29   11   12 1    
    30   11   38 1    
    31   11   39 1    
    32   12   13 2    
    33   12   40 1    
    34   13   14 1    
    35   13   41 1    
    36   14   15 1    
    37   14   42 1    
    38   14   43 1    
    39   15   16 1    
    40   15   44 1    
    41   15   45 1    
    42   16   17 1    
    43   16   46 1    
    44   16   47 1    
    45   17   18 1    
    46   17   48 1    
    47   17   49 1    
    48   18   50 1    
    49   18   51 1    
    50   18   52 1    
    51   20   21 1    
    52   21   53 1    
    53   21   54 1    
    54   21   55 1    
@<TRIPOS>SUBSTRUCTURE
     1 ****        1 TEMP              0 ****  ****    0 ROOT 
@<TRIPOS>NORMAL
@<TRIPOS>FF_PBC
FORCE_FIELD_SETUP_FEATURE Force Field Setup information
v1.0  0 0.000000 0.000000 0.000000 0.000000 0.000000 0.000000 NONE 0 0 0 0 1 0 0 0 0 0 0 0 0
