@<TRIPOS>MOLECULE
MOL008032
   79    83     1     1     0
SMALL
GASTEIGER


@<TRIPOS>ATOM
      1 C           1.166766    1.176857   -0.101642 C.2       1 <1>        -0.062664 
      2 C           1.043662   -0.340974    0.012903 C.3       1 <1>        -0.005087 
      3 C          -0.396383   -0.648764    0.640735 C.3       1 <1>        -0.019372 
      4 C           2.523092    1.852588    0.087897 C.3       1 <1>        -0.001891 
      5 C          -3.006620   -0.579117   -0.093392 C.3       1 <1>        -0.024349 
      6 C           3.368264    1.164670    1.201428 C.3       1 <1>         0.062686 
      7 C          -1.503480   -0.137228   -0.347020 C.3       1 <1>        -0.025716 
      8 C          -3.021038   -2.153237   -0.007324 C.3       1 <1>        -0.023487 
      9 C          -4.429858   -2.858710   -0.060716 C.3       1 <1>         0.026692 
     10 C           0.088539    1.917138   -0.405793 C.2       1 <1>        -0.083627 
     11 C           2.712909    1.306399    2.567018 C.2       1 <1>         0.266390 
     12 C           3.307672    2.076761   -1.254938 C.3       1 <1>        -0.033781 
     13 C           2.175980   -1.062708    0.833619 C.3       1 <1>        -0.042414 
     14 C          -0.596060   -2.188563    0.862642 C.3       1 <1>        -0.046258 
     15 C          -1.297670    1.377673   -0.675236 C.3       1 <1>        -0.030614 
     16 C           3.548946   -0.337972    0.840357 C.3       1 <1>        -0.036964 
     17 C          -5.154284   -2.306186   -1.276695 C.2       1 <1>         0.139227 
     18 C          -3.841524   -0.172036   -1.358506 C.3       1 <1>        -0.040363 
     19 C          -2.060436   -2.653285    1.115800 C.3       1 <1>        -0.048300 
     20 C           4.736046    1.889979    1.367088 C.3       1 <1>        -0.037513 
     21 C          -5.255803   -0.812296   -1.425767 C.3       1 <1>         0.006881 
     22 O           2.772262    0.430506    3.417336 O.2       1 <1>        -0.264536 
     23 C           4.649570    2.837270   -0.996259 C.3       1 <1>        -0.040697 
     24 C           5.505703    2.051783    0.034457 C.3       1 <1>        -0.049212 
     25 O          -5.633395   -3.030504   -2.135406 O.2       1 <1>        -0.296829 
     26 C           1.244496   -0.799333   -1.479501 C.3       1 <1>        -0.055323 
     27 O           2.074753    2.455506    2.805886 O.3       1 <1>        -0.330836 
     28 C          -0.558206    0.076975    2.026205 C.3       1 <1>        -0.058491 
     29 C          -3.651003    0.118044    1.162228 C.3       1 <1>        -0.058990 
     30 C          -4.285378   -4.404471   -0.273366 C.3       1 <1>        -0.052812 
     31 C          -5.318368   -2.675795    1.206315 C.3       1 <1>        -0.052812 
     32 C           2.431720    2.817718   -2.309613 C.3       1 <1>        -0.061601 
     33 C           5.498047    3.059666   -2.283783 C.3       1 <1>        -0.062153 
     34 H           2.340137    2.879534    0.442493 H         1 <1>         0.035871 
     35 H          -2.555899   -2.510229   -0.941920 H         1 <1>         0.031535 
     36 H          -1.257867   -0.658270   -1.279650 H         1 <1>         0.031460 
     37 H           0.184387    3.001945   -0.484299 H         1 <1>         0.057198 
     38 H           3.575492    1.118300   -1.714788 H         1 <1>         0.030671 
     39 H           2.322310   -2.084181    0.444456 H         1 <1>         0.027403 
     40 H           1.919351   -1.213017    1.883922 H         1 <1>         0.027403 
     41 H           0.006578   -2.537409    1.715759 H         1 <1>         0.027096 
     42 H          -0.254205   -2.749387   -0.016527 H         1 <1>         0.027096 
     43 H          -1.520280    1.572490   -1.737416 H         1 <1>         0.031042 
     44 H          -1.972415    2.021831   -0.099895 H         1 <1>         0.031042 
     45 H           4.209272   -0.819566    1.581777 H         1 <1>         0.027586 
     46 H           4.033489   -0.474820   -0.133493 H         1 <1>         0.027586 
     47 H          -3.951024    0.923426   -1.408964 H         1 <1>         0.027469 
     48 H          -3.324918   -0.494496   -2.278290 H         1 <1>         0.027469 
     49 H          -2.022492   -3.752829    1.128254 H         1 <1>         0.026856 
     50 H          -2.394313   -2.358814    2.117416 H         1 <1>         0.026856 
     51 H           4.569219    2.900130    1.779205 H         1 <1>         0.027568 
     52 H           5.365623    1.339774    2.086478 H         1 <1>         0.027568 
     53 H          -5.697284   -0.581460   -2.410262 H         1 <1>         0.034189 
     54 H          -5.955630   -0.418575   -0.677761 H         1 <1>         0.034189 
     55 H           4.422695    3.831515   -0.573305 H         1 <1>         0.030089 
     56 H           6.437598    2.603710    0.245690 H         1 <1>         0.026823 
     57 H           5.793024    1.072370   -0.377028 H         1 <1>         0.026823 
     58 H           0.732350   -0.153637   -2.208998 H         1 <1>         0.023829 
     59 H           2.303589   -0.779319   -1.759196 H         1 <1>         0.023829 
     60 H           0.918401   -1.829279   -1.665539 H         1 <1>         0.023829 
     61 H           1.692748    2.479297    3.676304 H         1 <1>         0.220226 
     62 H          -1.449004   -0.260314    2.560108 H         1 <1>         0.023542 
     63 H          -0.629700    1.167826    1.928724 H         1 <1>         0.023542 
     64 H           0.256473   -0.109003    2.729997 H         1 <1>         0.023542 
     65 H          -3.124073    1.021753    1.481258 H         1 <1>         0.023525 
     66 H          -4.676596    0.459226    0.979577 H         1 <1>         0.023525 
     67 H          -3.700032   -0.530269    2.042941 H         1 <1>         0.023525 
     68 H          -5.262956   -4.863562   -0.490702 H         1 <1>         0.023909 
     69 H          -3.900917   -4.913522    0.621222 H         1 <1>         0.023909 
     70 H          -3.619391   -4.632678   -1.119824 H         1 <1>         0.023909 
     71 H          -6.230081   -3.286329    1.114664 H         1 <1>         0.023909 
     72 H          -4.780479   -3.006864    2.106480 H         1 <1>         0.023909 
     73 H          -5.658159   -1.647706    1.361628 H         1 <1>         0.023909 
     74 H           2.947660    2.919613   -3.273721 H         1 <1>         0.023268 
     75 H           1.511008    2.260538   -2.527815 H         1 <1>         0.023268 
     76 H           2.163491    3.821967   -1.948818 H         1 <1>         0.023268 
     77 H           6.497635    3.443433   -2.027950 H         1 <1>         0.023250 
     78 H           5.038987    3.801489   -2.952924 H         1 <1>         0.023250 
     79 H           5.622964    2.112613   -2.830378 H         1 <1>         0.023250 
@<TRIPOS>BOND
     1    1    2 1    
     2    1    4 1    
     3    1   10 2    
     4    2    3 1    
     5    2   13 1    
     6    2   26 1    
     7    3    7 1    
     8    3   14 1    
     9    3   28 1    
    10    4    6 1    
    11    4   12 1    
    12    4   34 1    
    13    7    5 1    
    14    5    8 1    
    15    5   18 1    
    16    5   29 1    
    17    6   11 1    
    18    6   16 1    
    19    6   20 1    
    20    7   15 1    
    21    7   36 1    
    22    8    9 1    
    23    8   19 1    
    24    8   35 1    
    25    9   17 1    
    26    9   30 1    
    27    9   31 1    
    28   10   15 1    
    29   10   37 1    
    30   11   22 2    
    31   11   27 1    
    32   12   23 1    
    33   12   32 1    
    34   12   38 1    
    35   13   16 1    
    36   13   39 1    
    37   13   40 1    
    38   14   19 1    
    39   14   41 1    
    40   14   42 1    
    41   15   43 1    
    42   15   44 1    
    43   16   45 1    
    44   16   46 1    
    45   17   21 1    
    46   17   25 2    
    47   18   21 1    
    48   18   47 1    
    49   18   48 1    
    50   19   49 1    
    51   19   50 1    
    52   20   24 1    
    53   20   51 1    
    54   20   52 1    
    55   21   53 1    
    56   21   54 1    
    57   23   24 1    
    58   23   33 1    
    59   23   55 1    
    60   24   56 1    
    61   24   57 1    
    62   26   58 1    
    63   26   59 1    
    64   26   60 1    
    65   27   61 1    
    66   28   62 1    
    67   28   63 1    
    68   28   64 1    
    69   29   65 1    
    70   29   66 1    
    71   29   67 1    
    72   30   68 1    
    73   30   69 1    
    74   30   70 1    
    75   31   71 1    
    76   31   72 1    
    77   31   73 1    
    78   32   74 1    
    79   32   75 1    
    80   32   76 1    
    81   33   77 1    
    82   33   78 1    
    83   33   79 1    
@<TRIPOS>SUBSTRUCTURE
     1 ****        1 TEMP              0 ****  ****    0 ROOT 
@<TRIPOS>NORMAL
@<TRIPOS>FF_PBC
FORCE_FIELD_SETUP_FEATURE Force Field Setup information
v1.0  0 0.000000 0.000000 0.000000 0.000000 0.000000 0.000000 NONE 0 0 0 0 1 0 0 0 0 0 0 0 0
