@<TRIPOS>MOLECULE
MOL002142
   33    33     1     1     0
SMALL
GASTEIGER


@<TRIPOS>ATOM
      1 C          -2.329439   -0.459977   -1.119221 C.3       1 <1>        -0.039003 
      2 C          -3.036399    0.499919   -2.103021 C.3       1 <1>        -0.048656 
      3 C          -2.440942    1.918946   -1.930633 C.3       1 <1>        -0.033983 
      4 C          -0.932279    1.913968   -1.872016 C.2       1 <1>        -0.074479 
      5 C          -0.189397    0.814715   -1.666966 C.2       1 <1>         0.030127 
      6 C          -0.827979   -0.545960   -1.496531 C.3       1 <1>         0.047858 
      7 C          -0.089774   -1.376186   -0.470737 C.2       1 <1>         0.140865 
      8 O           0.352690   -2.475810   -0.762322 O.2       1 <1>        -0.296765 
      9 C           3.047485   -0.994996    3.514688 C.3       1 <1>        -0.065266 
     10 C           1.665713   -0.601630    2.930550 C.3       1 <1>        -0.055527 
     11 C           1.470581   -1.186377    1.505130 C.3       1 <1>        -0.046604 
     12 C           0.077903   -0.821487    0.924936 C.3       1 <1>         0.006426 
     13 C           1.291107    0.880721   -1.605131 C.2       1 <1>         0.287594 
     14 O           1.949879   -0.010580   -2.112004 O.2       1 <1>        -0.259769 
     15 O           1.933524    1.880941   -0.992917 O.3       1 <1>        -0.327718 
     16 H          -2.783254   -1.463983   -1.169766 H         1 <1>         0.027523 
     17 H          -2.453513   -0.077258   -0.093415 H         1 <1>         0.027523 
     18 H          -4.122534    0.520062   -1.911380 H         1 <1>         0.026850 
     19 H          -2.877605    0.148647   -3.136274 H         1 <1>         0.026850 
     20 H          -2.782397    2.555491   -2.763684 H         1 <1>         0.030752 
     21 H          -2.805281    2.362474   -0.989780 H         1 <1>         0.030752 
     22 H          -0.449612    2.882688   -2.008971 H         1 <1>         0.057672 
     23 H          -0.740296   -1.048782   -2.474161 H         1 <1>         0.042765 
     24 H           3.166497   -0.572584    4.525145 H         1 <1>         0.022978 
     25 H           3.139771   -2.090560    3.580984 H         1 <1>         0.022978 
     26 H           3.858016   -0.609983    2.876122 H         1 <1>         0.022978 
     27 H           1.591217    0.498169    2.892464 H         1 <1>         0.026275 
     28 H           0.872349   -0.978998    3.596889 H         1 <1>         0.026275 
     29 H           1.575302   -2.283439    1.544467 H         1 <1>         0.026919 
     30 H           2.251440   -0.788531    0.835433 H         1 <1>         0.026919 
     31 H          -0.041820    0.273173    0.934093 H         1 <1>         0.034172 
     32 H          -0.709953   -1.257894    1.558358 H         1 <1>         0.034172 
     33 H           1.369100    2.494701   -0.540629 H         1 <1>         0.220546 
@<TRIPOS>BOND
     1    1    2 1    
     2    6    1 1    
     3    1   16 1    
     4    1   17 1    
     5    2    3 1    
     6    2   18 1    
     7    2   19 1    
     8    4    3 1    
     9    3   20 1    
    10    3   21 1    
    11    5    4 2    
    12    4   22 1    
    13    6    5 1    
    14    5   13 1    
    15    7    6 1    
    16    6   23 1    
    17    7    8 2    
    18   12    7 1    
    19   10    9 1    
    20    9   24 1    
    21    9   25 1    
    22    9   26 1    
    23   11   10 1    
    24   10   27 1    
    25   10   28 1    
    26   11   12 1    
    27   11   29 1    
    28   11   30 1    
    29   12   31 1    
    30   12   32 1    
    31   13   14 2    
    32   13   15 1    
    33   15   33 1    
@<TRIPOS>SUBSTRUCTURE
     1 ****        9 TEMP              0 ****  ****    0 ROOT 
@<TRIPOS>NORMAL
@<TRIPOS>FF_PBC
FORCE_FIELD_SETUP_FEATURE Force Field Setup information
v1.0  0 0.000000 0.000000 0.000000 0.000000 0.000000 0.000000 NONE 0 0 0 0 1 0 0 0 0 0 0 0 0
