@<TRIPOS>MOLECULE
MOL004872
   59    61     1     1     0
SMALL
GASTEIGER


@<TRIPOS>ATOM
      1 C           0.992764    4.915161   -0.598826 C.3       1 <1>         0.096475 
      2 C           2.083624    3.808876   -0.591533 C.3       1 <1>         0.088123 
      3 C           1.435592    2.413840   -0.815014 C.3       1 <1>         0.003863 
      4 C           0.123781    2.220028   -0.027970 C.ar      1 <1>        -0.011242 
      5 C          -0.550256    0.885459    0.091501 C.ar      1 <1>        -0.035445 
      6 C          -1.745109    0.773051    0.882156 C.ar      1 <1>        -0.010339 
      7 C          -2.270809    1.978486    1.586088 C.ar      1 <1>         0.078756 
      8 C          -1.656718    3.216422    1.424302 C.ar      1 <1>        -0.001320 
      9 C          -0.445129    3.350511    0.601206 C.ar      1 <1>         0.082942 
     10 O           0.117557    4.622477    0.493753 O.3       1 <1>        -0.335899 
     11 O           3.082349    3.993647   -1.612205 O.3       1 <1>        -0.388620 
     12 O          -3.387366    1.863158    2.421437 O.3       1 <1>        -0.359460 
     13 C          -2.644785   -0.455860    1.170443 C.3       1 <1>        -0.006541 
     14 C          -2.621785   -1.818811    0.514203 C.2       1 <1>        -0.080890 
     15 C          -3.005756   -2.947753    1.138911 C.2       1 <1>        -0.079307 
     16 C          -2.907023   -4.302947    0.470200 C.3       1 <1>        -0.044040 
     17 C          -3.575884   -2.976010    2.546908 C.3       1 <1>        -0.044040 
     18 C           1.566869    6.325067   -0.293132 C.3       1 <1>        -0.033130 
     19 C           0.196005    4.966590   -1.933330 C.3       1 <1>        -0.033130 
     20 C           0.079505   -0.316759   -0.654097 C.3       1 <1>        -0.023006 
     21 C           0.698368   -1.340980    0.336061 C.3       1 <1>        -0.023591 
     22 C           1.372640   -2.552415   -0.342116 C.ar      1 <1>        -0.044460 
     23 C           2.724241   -2.994634    0.086507 C.ar      1 <1>        -0.026216 
     24 C           3.335614   -4.112759   -0.495725 C.ar      1 <1>         0.102443 
     25 C           2.647050   -4.856895   -1.580971 C.ar      1 <1>         0.102201 
     26 C           1.373409   -4.442764   -1.998835 C.ar      1 <1>        -0.029149 
     27 C           0.724395   -3.276497   -1.357858 C.ar      1 <1>        -0.055972 
     28 O           3.284236   -5.956888   -2.164785 O.3       1 <1>        -0.357275 
     29 O           4.597065   -4.516770   -0.050866 O.3       1 <1>        -0.357268 
     30 H           2.554589    3.809906    0.410869 H         1 <1>         0.062516 
     31 H           2.175879    1.667478   -0.485401 H         1 <1>         0.033998 
     32 H           1.244379    2.260575   -1.890280 H         1 <1>         0.033998 
     33 H          -2.051498    4.103331    1.911952 H         1 <1>         0.066927 
     34 H           3.600620    4.782938   -1.504134 H         1 <1>         0.209914 
     35 H          -3.342081    2.421928    3.194401 H         1 <1>         0.217326 
     36 H          -3.688533   -0.136936    1.017976 H         1 <1>         0.035648 
     37 H          -2.473026   -0.598733    2.246830 H         1 <1>         0.035648 
     38 H          -2.309785   -1.909056   -0.519237 H         1 <1>         0.057472 
     39 H          -2.318261   -4.288480   -0.459568 H         1 <1>         0.027427 
     40 H          -3.924019   -4.650067    0.232920 H         1 <1>         0.027427 
     41 H          -2.428911   -5.015940    1.161713 H         1 <1>         0.027427 
     42 H          -4.149263   -2.072431    2.806314 H         1 <1>         0.027427 
     43 H          -4.272710   -3.821461    2.661816 H         1 <1>         0.027427 
     44 H          -2.751902   -3.100278    3.263870 H         1 <1>         0.027427 
     45 H           2.132651    6.313399    0.652009 H         1 <1>         0.025820 
     46 H           0.741991    7.047728   -0.186477 H         1 <1>         0.025820 
     47 H           2.223038    6.680912   -1.098946 H         1 <1>         0.025820 
     48 H          -0.556034    5.769399   -1.888365 H         1 <1>         0.025820 
     49 H          -0.333945    4.026763   -2.135492 H         1 <1>         0.025820 
     50 H           0.884313    5.170248   -2.766455 H         1 <1>         0.025820 
     51 H          -0.676031   -0.726271   -1.327586 H         1 <1>         0.031650 
     52 H           0.900855   -0.038803   -1.323267 H         1 <1>         0.031650 
     53 H           1.446233   -0.792061    0.929713 H         1 <1>         0.031633 
     54 H          -0.064475   -1.720874    1.027428 H         1 <1>         0.031633 
     55 H           3.253224   -2.457956    0.868089 H         1 <1>         0.064676 
     56 H           0.849282   -4.963832   -2.791719 H         1 <1>         0.064412 
     57 H          -0.268651   -3.003890   -1.690041 H         1 <1>         0.062110 
     58 H           2.814049   -6.338947   -2.898764 H         1 <1>         0.217422 
     59 H           4.875955   -5.314268   -0.491405 H         1 <1>         0.217422 
@<TRIPOS>BOND
     1    1    2 1    
     2    1   10 1    
     3    1   18 1    
     4    1   19 1    
     5    2    3 1    
     6    2   11 1    
     7    2   30 1    
     8    3    4 1    
     9    3   31 1    
    10    3   32 1    
    11    4    5 1    
    12    4    9 2    
    13    5    6 2    
    14    5   20 1    
    15    6    7 1    
    16    6   13 1    
    17    7    8 2    
    18    7   12 1    
    19    8    9 1    
    20    8   33 1    
    21    9   10 1    
    22   11   34 1    
    23   12   35 1    
    24   13   14 1    
    25   13   36 1    
    26   13   37 1    
    27   14   15 2    
    28   14   38 1    
    29   15   16 1    
    30   15   17 1    
    31   16   39 1    
    32   16   40 1    
    33   16   41 1    
    34   17   42 1    
    35   17   43 1    
    36   17   44 1    
    37   18   45 1    
    38   18   46 1    
    39   18   47 1    
    40   19   48 1    
    41   19   49 1    
    42   19   50 1    
    43   20   21 1    
    44   20   51 1    
    45   20   52 1    
    46   21   22 1    
    47   21   53 1    
    48   21   54 1    
    49   22   23 1    
    50   22   27 2    
    51   23   24 2    
    52   23   55 1    
    53   24   25 1    
    54   24   29 1    
    55   25   26 2    
    56   25   28 1    
    57   26   27 1    
    58   26   56 1    
    59   27   57 1    
    60   28   58 1    
    61   29   59 1    
@<TRIPOS>SUBSTRUCTURE
     1 ****        1 TEMP              0 ****  ****    0 ROOT 
@<TRIPOS>NORMAL
@<TRIPOS>FF_PBC
FORCE_FIELD_SETUP_FEATURE Force Field Setup information
v1.0  0 0.000000 0.000000 0.000000 0.000000 0.000000 0.000000 NONE 0 0 0 0 1 0 0 0 0 0 0 0 0
