@<TRIPOS>MOLECULE
MOL000869
   65    64     1     1     0
SMALL
GASTEIGER


@<TRIPOS>ATOM
      1 C         -12.824950   -0.419354   -0.000108 C.3       1 <1>        -0.065276 
      2 C         -11.550173    0.464156    0.000121 C.3       1 <1>        -0.055911 
      3 C         -10.262641   -0.404370   -0.000104 C.3       1 <1>        -0.053306 
      4 C          -8.982972    0.476268    0.000117 C.3       1 <1>        -0.053065 
      5 C          -7.698149   -0.396738   -0.000110 C.3       1 <1>        -0.053057 
      6 C          -6.415412    0.479230    0.000113 C.3       1 <1>        -0.053057 
      7 C          -5.133144   -0.397765   -0.000111 C.3       1 <1>        -0.053057 
      8 C          -3.848410    0.475290    0.000113 C.3       1 <1>        -0.053057 
      9 C          -2.567139   -0.403148   -0.000112 C.3       1 <1>        -0.053057 
     10 C          -1.282568    0.470092    0.000112 C.3       1 <1>        -0.053057 
     11 C          -0.000000   -0.406346   -0.000113 C.3       1 <1>        -0.053057 
     12 C           1.282568    0.470092    0.000112 C.3       1 <1>        -0.053057 
     13 C           2.567139   -0.403148   -0.000112 C.3       1 <1>        -0.053057 
     14 C           3.848410    0.475290    0.000113 C.3       1 <1>        -0.053057 
     15 C           5.133144   -0.397765   -0.000111 C.3       1 <1>        -0.053057 
     16 C           6.415412    0.479230    0.000113 C.3       1 <1>        -0.053057 
     17 C           7.698149   -0.396738   -0.000110 C.3       1 <1>        -0.053057 
     18 C           8.982972    0.476268    0.000117 C.3       1 <1>        -0.053065 
     19 C          10.262641   -0.404370   -0.000104 C.3       1 <1>        -0.053306 
     20 C          11.550173    0.464156    0.000121 C.3       1 <1>        -0.055911 
     21 C          12.824950   -0.419354   -0.000108 C.3       1 <1>        -0.065276 
     22 H         -13.725969    0.214276    0.000053 H         1 <1>         0.022978 
     23 H         -12.847992   -1.060281   -0.895246 H         1 <1>         0.022978 
     24 H         -12.847990   -1.060738    0.894691 H         1 <1>         0.022978 
     25 H         -11.559798    1.110368    0.893780 H         1 <1>         0.026265 
     26 H         -11.559801    1.110834   -0.893225 H         1 <1>         0.026265 
     27 H         -10.260626   -1.050298   -0.893580 H         1 <1>         0.026520 
     28 H         -10.260625   -1.050757    0.893019 H         1 <1>         0.026520 
     29 H          -8.984967    1.122136    0.893602 H         1 <1>         0.026528 
     30 H          -8.984969    1.122602   -0.893043 H         1 <1>         0.026528 
     31 H          -7.697373   -1.042578   -0.893577 H         1 <1>         0.026528 
     32 H          -7.697372   -1.043042    0.893020 H         1 <1>         0.026528 
     33 H          -6.415282    1.125074    0.893638 H         1 <1>         0.026528 
     34 H          -6.415282    1.125537   -0.893075 H         1 <1>         0.026528 
     35 H          -5.133960   -1.043666   -0.893606 H         1 <1>         0.026528 
     36 H          -5.133960   -1.044130    0.893049 H         1 <1>         0.026528 
     37 H          -3.847322    1.121162    0.893616 H         1 <1>         0.026528 
     38 H          -3.847323    1.121627   -0.893055 H         1 <1>         0.026528 
     39 H          -2.568308   -1.049007   -0.893606 H         1 <1>         0.026528 
     40 H          -2.568308   -1.049471    0.893046 H         1 <1>         0.026528 
     41 H          -1.281823    1.115936    0.893605 H         1 <1>         0.026528 
     42 H          -1.281823    1.116401   -0.893046 H         1 <1>         0.026528 
     43 H          -0.000000   -1.052290   -0.893609 H         1 <1>         0.026528 
     44 H           0.000000   -1.052754    0.893048 H         1 <1>         0.026528 
     45 H           1.281823    1.115936    0.893605 H         1 <1>         0.026528 
     46 H           1.281823    1.116401   -0.893046 H         1 <1>         0.026528 
     47 H           2.568308   -1.049007   -0.893606 H         1 <1>         0.026528 
     48 H           2.568308   -1.049471    0.893046 H         1 <1>         0.026528 
     49 H           3.847322    1.121162    0.893616 H         1 <1>         0.026528 
     50 H           3.847323    1.121627   -0.893055 H         1 <1>         0.026528 
     51 H           5.133960   -1.043666   -0.893606 H         1 <1>         0.026528 
     52 H           5.133960   -1.044130    0.893049 H         1 <1>         0.026528 
     53 H           6.415282    1.125074    0.893638 H         1 <1>         0.026528 
     54 H           6.415282    1.125537   -0.893075 H         1 <1>         0.026528 
     55 H           7.697373   -1.042578   -0.893577 H         1 <1>         0.026528 
     56 H           7.697372   -1.043042    0.893020 H         1 <1>         0.026528 
     57 H           8.984967    1.122136    0.893602 H         1 <1>         0.026528 
     58 H           8.984969    1.122602   -0.893043 H         1 <1>         0.026528 
     59 H          10.260626   -1.050298   -0.893580 H         1 <1>         0.026520 
     60 H          10.260625   -1.050757    0.893019 H         1 <1>         0.026520 
     61 H          11.559798    1.110368    0.893780 H         1 <1>         0.026265 
     62 H          11.559801    1.110834   -0.893225 H         1 <1>         0.026265 
     63 H          13.725969    0.214276    0.000053 H         1 <1>         0.022978 
     64 H          12.847992   -1.060281   -0.895246 H         1 <1>         0.022978 
     65 H          12.847990   -1.060738    0.894691 H         1 <1>         0.022978 
@<TRIPOS>BOND
     1    1    2 1    
     2    1   22 1    
     3    1   23 1    
     4    1   24 1    
     5    2    3 1    
     6    2   25 1    
     7    2   26 1    
     8    3    4 1    
     9    3   27 1    
    10    3   28 1    
    11    4    5 1    
    12    4   29 1    
    13    4   30 1    
    14    5    6 1    
    15    5   31 1    
    16    5   32 1    
    17    6    7 1    
    18    6   33 1    
    19    6   34 1    
    20    7    8 1    
    21    7   35 1    
    22    7   36 1    
    23    8    9 1    
    24    8   37 1    
    25    8   38 1    
    26    9   10 1    
    27    9   39 1    
    28    9   40 1    
    29   10   11 1    
    30   10   41 1    
    31   10   42 1    
    32   11   12 1    
    33   11   43 1    
    34   11   44 1    
    35   12   13 1    
    36   12   45 1    
    37   12   46 1    
    38   13   14 1    
    39   13   47 1    
    40   13   48 1    
    41   14   15 1    
    42   14   49 1    
    43   14   50 1    
    44   15   16 1    
    45   15   51 1    
    46   15   52 1    
    47   16   17 1    
    48   16   53 1    
    49   16   54 1    
    50   17   18 1    
    51   17   55 1    
    52   17   56 1    
    53   18   19 1    
    54   18   57 1    
    55   18   58 1    
    56   19   20 1    
    57   19   59 1    
    58   19   60 1    
    59   20   21 1    
    60   20   61 1    
    61   20   62 1    
    62   21   63 1    
    63   21   64 1    
    64   21   65 1    
@<TRIPOS>SUBSTRUCTURE
     1 ****        1 TEMP              0 ****  ****    0 ROOT 
@<TRIPOS>NORMAL
@<TRIPOS>FF_PBC
FORCE_FIELD_SETUP_FEATURE Force Field Setup information
v1.0  0 0.000000 0.000000 0.000000 0.000000 0.000000 0.000000 NONE 0 0 0 0 1 0 0 0 0 0 0 0 0
