@<TRIPOS>MOLECULE
MOL010489
   36    38     1     1     0
SMALL
GASTEIGER


@<TRIPOS>ATOM
      1 O          -0.887471    0.868109    0.269545 O.3       1 <1>        -0.333683 
      2 O          -0.773568   -2.505571    1.625069 O.3       1 <1>        -0.384338 
      3 O           1.708725   -1.739426    0.525972 O.3       1 <1>        -0.385949 
      4 O          -3.237492   -3.398444   -0.214563 O.3       1 <1>        -0.359308 
      5 O          -5.673080    0.860877   -0.487083 O.3       1 <1>        -0.359667 
      6 O           4.399032    2.128129    2.934604 O.3       1 <1>        -0.357268 
      7 O           4.925854    3.671094    0.567886 O.3       1 <1>        -0.357275 
      8 C          -2.030258   -1.242930    0.056899 C.ar      1 <1>         0.043230 
      9 C          -2.053597    0.119541    0.079586 C.ar      1 <1>         0.087686 
     10 C           0.243882    0.195804    0.847284 C.3       1 <1>         0.118778 
     11 C          -0.730177   -2.022955    0.269623 C.3       1 <1>         0.113520 
     12 C           0.501720   -1.105832    0.056649 C.3       1 <1>         0.115931 
     13 C          -3.284926   -2.001095   -0.174845 C.ar      1 <1>         0.083191 
     14 C           1.472531    1.110751    0.765893 C.ar      1 <1>        -0.013238 
     15 C          -3.338462    0.831496   -0.111161 C.ar      1 <1>        -0.001363 
     16 C          -4.480455    0.153269   -0.314272 C.ar      1 <1>         0.077483 
     17 C          -4.456122   -1.331567   -0.351802 C.ar      1 <1>        -0.001651 
     18 C           2.413778    1.210335    1.909260 C.ar      1 <1>        -0.023671 
     19 C           1.719761    1.866560   -0.397700 C.ar      1 <1>        -0.053425 
     20 C           3.534448    2.048927    1.841369 C.ar      1 <1>         0.102526 
     21 C           3.797448    2.844500    0.614781 C.ar      1 <1>         0.102203 
     22 C           2.907197    2.750554   -0.479835 C.ar      1 <1>        -0.029067 
     23 H           0.008423   -2.995276    1.861927 H         1 <1>         0.210348 
     24 H           1.924426   -2.533077    0.045799 H         1 <1>         0.210030 
     25 H          -4.068748   -3.827315   -0.042669 H         1 <1>         0.217329 
     26 H          -6.439599    0.309437   -0.596314 H         1 <1>         0.217316 
     27 H           5.109192    2.739318    2.766436 H         1 <1>         0.217422 
     28 H           5.029505    4.148943   -0.246855 H         1 <1>         0.217422 
     29 H           0.028182   -0.040029    1.902062 H         1 <1>         0.067853 
     30 H          -0.687464   -2.868627   -0.438919 H         1 <1>         0.067212 
     31 H           0.595640   -0.842081   -1.011103 H         1 <1>         0.065224 
     32 H          -3.353207    1.915249   -0.084219 H         1 <1>         0.066921 
     33 H          -5.375891   -1.879277   -0.523787 H         1 <1>         0.066913 
     34 H           2.242576    0.632907    2.811011 H         1 <1>         0.064760 
     35 H           1.040213    1.805637   -1.242022 H         1 <1>         0.062193 
     36 H           3.083687    3.321064   -1.385106 H         1 <1>         0.064413 
@<TRIPOS>BOND
     1    1    9 1    
     2   10    1 1    
     3   11    2 1    
     4    2   23 1    
     5   12    3 1    
     6    3   24 1    
     7   13    4 1    
     8    4   25 1    
     9   16    5 1    
    10    5   26 1    
    11   20    6 1    
    12    6   27 1    
    13   21    7 1    
    14    7   28 1    
    15    9    8 2    
    16   11    8 1    
    17    8   13 1    
    18    9   15 1    
    19   10   12 1    
    20   14   10 1    
    21   10   29 1    
    22   12   11 1    
    23   11   30 1    
    24   12   31 1    
    25   13   17 2    
    26   18   14 1    
    27   14   19 2    
    28   15   16 2    
    29   15   32 1    
    30   16   17 1    
    31   17   33 1    
    32   20   18 2    
    33   18   34 1    
    34   19   22 1    
    35   19   35 1    
    36   20   21 1    
    37   21   22 2    
    38   22   36 1    
@<TRIPOS>SUBSTRUCTURE
     1 ****        1 TEMP              0 ****  ****    0 ROOT 
@<TRIPOS>NORMAL
@<TRIPOS>FF_PBC
FORCE_FIELD_SETUP_FEATURE Force Field Setup information
v1.0  0 0.000000 0.000000 0.000000 0.000000 0.000000 0.000000 NONE 0 0 0 0 1 0 0 0 0 0 0 0 0
