@<TRIPOS>MOLECULE
MOL007587
   10    10     1     1     0
SMALL
GASTEIGER


@<TRIPOS>ATOM
      1 C          -0.983728   -0.489306    0.480362 C.ar      1 <1>         0.007447 
      2 C           0.428371   -0.869465    0.705945 C.ar      1 <1>         0.007447 
      3 C          -0.986630    0.564413   -0.410179 C.ar      1 <1>         0.169657 
      4 C           1.206631   -0.026006   -0.059839 C.ar      1 <1>         0.169657 
      5 N           0.342405    0.837803   -0.731440 N.ar      1 <1>        -0.217216 
      6 H          -1.853649   -0.954374    0.932504 H         1 <1>         0.067847 
      7 H           0.783389   -1.664305    1.353768 H         1 <1>         0.067847 
      8 H          -1.870328    1.077264   -0.783759 H         1 <1>         0.137544 
      9 H           2.292782   -0.043464   -0.118739 H         1 <1>         0.137544 
     10 H           0.640557    1.567339   -1.368422 H         1 <1>         0.452226 
@<TRIPOS>BOND
     1    1    2 1    
     2    1    3 2    
     3    1    6 1    
     4    2    4 2    
     5    2    7 1    
     6    3    5 1    
     7    3    8 1    
     8    4    5 1    
     9    4    9 1    
    10    5   10 1    
@<TRIPOS>SUBSTRUCTURE
     1 ****        1 TEMP              0 ****  ****    0 ROOT 
@<TRIPOS>NORMAL
@<TRIPOS>FF_PBC
FORCE_FIELD_SETUP_FEATURE Force Field Setup information
v1.0  0 0.000000 0.000000 0.000000 0.000000 0.000000 0.000000 NONE 0 0 0 0 1 0 0 0 0 0 0 0 0
