@<TRIPOS>MOLECULE
MOL012978
   77    80     1     1     0
SMALL
GASTEIGER


@<TRIPOS>ATOM
      1 C           1.869198    2.721033    2.477544 C.ar      1 <1>        -0.029199 
      2 C           2.596819    2.343864    1.239930 C.ar      1 <1>         0.077351 
      3 C           3.638930    1.523605    1.320448 C.ar      1 <1>        -0.022016 
      4 C           4.094353    0.970189    2.616053 C.ar      1 <1>         0.008315 
      5 C           3.456751    1.315102    3.754724 C.ar      1 <1>         0.079896 
      6 C           2.278995    2.224633    3.677272 C.ar      1 <1>        -0.028922 
      7 O           2.223255    2.834282   -0.010542 O.3       1 <1>        -0.339075 
      8 N           4.309834   -1.338970    0.874061 N.am      1 <1>        -0.290407 
      9 C           1.012335    2.325763   -0.601708 C.3       1 <1>         0.093591 
     10 C           5.290147    0.046556    2.555689 C.2       1 <1>        -0.038160 
     11 C           5.361411   -0.920292    1.625180 C.2       1 <1>        -0.003049 
     12 C           3.063882   -1.512811    1.389951 C.2       1 <1>         0.237368 
     13 N          -0.095015    0.783544   -1.681718 N.am      1 <1>        -0.286020 
     14 C           1.025831    2.636021   -2.135732 C.3       1 <1>        -0.007985 
     15 C           0.487594    1.374968   -2.872048 C.3       1 <1>         0.018031 
     16 C           0.511275    0.154711    0.785832 C.2       1 <1>         0.236729 
     17 C           0.840468    0.787858   -0.544069 C.3       1 <1>         0.128701 
     18 N           0.749034   -1.139426    1.137134 N.am      1 <1>        -0.302128 
     19 C          -1.451262    0.563277   -1.662919 C.2       1 <1>         0.233803 
     20 C           1.840217   -2.016607    0.637569 C.3       1 <1>         0.102250 
     21 C           1.963383   -2.530097   -0.847603 C.3       1 <1>        -0.017135 
     22 N          -3.390270   -0.648779   -0.473105 N.3       1 <1>        -0.297375 
     23 C          -2.374694    0.442370   -0.460535 C.3       1 <1>         0.090963 
     24 O           3.901969    0.815906    4.980456 O.3       1 <1>        -0.359242 
     25 O          -0.027759    0.889144    1.600569 O.2       1 <1>        -0.273659 
     26 C          -4.130436   -0.782116    0.812224 C.3       1 <1>        -0.012324 
     27 C          -2.915987   -1.971351   -0.958241 C.3       1 <1>        -0.012324 
     28 O           2.859867   -1.308404    2.576894 O.2       1 <1>        -0.273437 
     29 O          -2.039068    0.513019   -2.730261 O.2       1 <1>        -0.273847 
     30 C           0.551402   -2.580742   -1.492382 C.3       1 <1>        -0.060281 
     31 C           2.553139   -3.980693   -1.027669 C.3       1 <1>        -0.051175 
     32 C           4.006867   -4.221467   -0.540338 C.3       1 <1>        -0.064964 
     33 C          -4.508144    1.968587   -0.613986 C.ar      1 <1>        -0.045413 
     34 C          -3.018905    1.856812   -0.224293 C.3       1 <1>        -0.003516 
     35 C          -5.417542    2.824850    0.194668 C.ar      1 <1>        -0.058511 
     36 C          -6.784772    2.913199   -0.112563 C.ar      1 <1>        -0.061501 
     37 C          -7.343867    2.163404   -1.262347 C.ar      1 <1>        -0.061742 
     38 C          -6.496185    1.366841   -2.040586 C.ar      1 <1>        -0.061501 
     39 C          -5.052216    1.273814   -1.718982 C.ar      1 <1>        -0.058511 
     40 H           1.015860    3.387502    2.416449 H         1 <1>         0.064408 
     41 H           4.164515    1.270617    0.406586 H         1 <1>         0.064999 
     42 H           1.740069    2.494787    4.579729 H         1 <1>         0.064418 
     43 H           4.510158   -1.649129   -0.049156 H         1 <1>         0.154295 
     44 H           0.136105    2.793823   -0.120742 H         1 <1>         0.062512 
     45 H           6.119679    0.229406    3.236597 H         1 <1>         0.063669 
     46 H           6.334929   -1.392196    1.461499 H         1 <1>         0.078218 
     47 H           0.389906    3.512563   -2.346309 H         1 <1>         0.030620 
     48 H           2.046271    2.854456   -2.490900 H         1 <1>         0.030620 
     49 H           1.288601    0.718456   -3.255282 H         1 <1>         0.046548 
     50 H          -0.188538    1.638063   -3.702928 H         1 <1>         0.046548 
     51 H           1.810400    0.365858   -0.840053 H         1 <1>         0.062298 
     52 H           0.306195   -1.421923    1.995095 H         1 <1>         0.149518 
     53 H           1.650057   -2.980609    1.140114 H         1 <1>         0.059722 
     54 H           2.576058   -1.828842   -1.434921 H         1 <1>         0.032060 
     55 H          -1.809931    0.148054    0.413278 H         1 <1>         0.056160 
     56 H           3.298206    0.982918    5.693090 H         1 <1>         0.217338 
     57 H          -4.267391    0.176975    1.341235 H         1 <1>         0.039072 
     58 H          -3.607183   -1.467249    1.505076 H         1 <1>         0.039072 
     59 H          -5.130336   -1.185995    0.584033 H         1 <1>         0.039072 
     60 H          -2.137993   -2.365374   -0.287168 H         1 <1>         0.039072 
     61 H          -3.745686   -2.695899   -0.982094 H         1 <1>         0.039072 
     62 H          -2.505426   -1.908478   -1.976853 H         1 <1>         0.039072 
     63 H           0.046741   -1.620256   -1.381987 H         1 <1>         0.023311 
     64 H           0.604545   -2.812880   -2.568686 H         1 <1>         0.023311 
     65 H          -0.061690   -3.349861   -1.001043 H         1 <1>         0.023311 
     66 H           1.909147   -4.717135   -0.515981 H         1 <1>         0.026590 
     67 H           2.543061   -4.239191   -2.101754 H         1 <1>         0.026590 
     68 H           4.277995   -5.283263   -0.655454 H         1 <1>         0.022987 
     69 H           4.112371   -3.967600    0.524943 H         1 <1>         0.022987 
     70 H           4.717334   -3.637172   -1.146334 H         1 <1>         0.022987 
     71 H          -2.940369    2.100428    0.849539 H         1 <1>         0.033308 
     72 H          -2.479055    2.654450   -0.764681 H         1 <1>         0.033308 
     73 H          -5.028534    3.391985    1.034689 H         1 <1>         0.062030 
     74 H          -7.438943    3.533833    0.491563 H         1 <1>         0.061766 
     75 H          -8.401482    2.232465   -1.499792 H         1 <1>         0.061758 
     76 H          -6.896670    0.811407   -2.882040 H         1 <1>         0.061766 
     77 H          -4.427700    0.654927   -2.348319 H         1 <1>         0.062030 
@<TRIPOS>BOND
     1    2    1 1    
     2    1    6 2    
     3    1   40 1    
     4    2    3 2    
     5    7    2 1    
     6    3    4 1    
     7    3   41 1    
     8    4    5 2    
     9    4   10 1    
    10    6    5 1    
    11    5   24 1    
    12    6   42 1    
    13    9    7 1    
    14   11    8 1    
    15    8   12 1    
    16    8   43 1    
    17    9   14 1    
    18   17    9 1    
    19    9   44 1    
    20   10   11 2    
    21   10   45 1    
    22   11   46 1    
    23   12   20 1    
    24   12   28 2    
    25   13   15 1    
    26   13   17 1    
    27   13   19 1    
    28   14   15 1    
    29   14   47 1    
    30   14   48 1    
    31   15   49 1    
    32   15   50 1    
    33   17   16 1    
    34   16   18 1    
    35   16   25 2    
    36   17   51 1    
    37   18   20 1    
    38   18   52 1    
    39   19   23 1    
    40   19   29 2    
    41   20   21 1    
    42   20   53 1    
    43   21   30 1    
    44   21   31 1    
    45   21   54 1    
    46   23   22 1    
    47   22   26 1    
    48   22   27 1    
    49   23   34 1    
    50   23   55 1    
    51   24   56 1    
    52   26   57 1    
    53   26   58 1    
    54   26   59 1    
    55   27   60 1    
    56   27   61 1    
    57   27   62 1    
    58   30   63 1    
    59   30   64 1    
    60   30   65 1    
    61   31   32 1    
    62   31   66 1    
    63   31   67 1    
    64   32   68 1    
    65   32   69 1    
    66   32   70 1    
    67   34   33 1    
    68   33   35 1    
    69   33   39 2    
    70   34   71 1    
    71   34   72 1    
    72   35   36 2    
    73   35   73 1    
    74   36   37 1    
    75   36   74 1    
    76   37   38 2    
    77   37   75 1    
    78   38   39 1    
    79   38   76 1    
    80   39   77 1    
@<TRIPOS>SUBSTRUCTURE
     1 ****       13 TEMP              0 ****  ****    0 ROOT 
@<TRIPOS>NORMAL
@<TRIPOS>FF_PBC
FORCE_FIELD_SETUP_FEATURE Force Field Setup information
v1.0  0 0.000000 0.000000 0.000000 0.000000 0.000000 0.000000 NONE 0 0 0 0 1 0 0 0 0 0 0 0 0
