@<TRIPOS>MOLECULE
MOL007244
   61    63     1     1     0
SMALL
GASTEIGER


@<TRIPOS>ATOM
      1 C           1.998928    4.859097    1.723721 C.3       1 <1>         0.155107 
      2 C           0.200472    2.873179    0.380358 C.3       1 <1>         0.120920 
      3 C           1.718694    2.595406    0.569610 C.3       1 <1>         0.100544 
      4 C           2.234570    3.331058    1.833123 C.3       1 <1>         0.014947 
      5 C           0.485652    5.139107    1.514860 C.3       1 <1>         0.014083 
      6 C          -0.055348    4.401613    0.259842 C.3       1 <1>         0.087473 
      7 C           2.465205    5.534416    2.999855 C.2       1 <1>         0.291720 
      8 O          -0.262162    2.164431   -0.786647 O.3       1 <1>        -0.303337 
      9 O           1.919773    1.184727    0.818738 O.3       1 <1>        -0.305741 
     10 C          -1.588467    2.153165   -0.902428 C.2       1 <1>         0.287013 
     11 C           1.802760    0.397902   -0.262574 C.2       1 <1>         0.286936 
     12 C          -2.673474    1.625215   -1.774658 C.2       1 <1>         0.010505 
     13 C           1.571537   -1.045007   -0.076490 C.2       1 <1>         0.010502 
     14 C          -0.110195   -5.421961   -1.878583 C.ar      1 <1>         0.102746 
     15 C          -3.171057    0.377353   -1.898671 C.2       1 <1>        -0.048778 
     16 C           1.228918   -1.867114   -1.077987 C.2       1 <1>        -0.048856 
     17 C           0.383029   -6.199597   -0.714974 C.ar      1 <1>         0.102220 
     18 C          -2.698661   -0.854672   -1.149708 C.ar      1 <1>        -0.019990 
     19 C          -1.884827   -3.309167    0.177891 C.ar      1 <1>        -0.002134 
     20 C           0.188903   -4.037204   -1.980026 C.ar      1 <1>        -0.022249 
     21 O           3.305305    6.421043    2.991948 O.2       1 <1>        -0.261963 
     22 C          -1.532714   -2.075362    0.733503 C.ar      1 <1>         0.075576 
     23 C          -2.662126   -3.369547   -1.084353 C.ar      1 <1>         0.075576 
     24 O          -1.044020    1.541419   -1.808931 O.2       1 <1>        -0.259867 
     25 O           1.890983    0.839738   -1.397459 O.2       1 <1>        -0.259868 
     26 C           0.971412   -3.352001   -0.921283 C.ar      1 <1>        -0.022259 
     27 C           1.131228   -5.563317    0.280448 C.ar      1 <1>        -0.028849 
     28 O           2.767253    5.321634    0.595420 O.3       1 <1>        -0.378361 
     29 C          -3.046261   -2.181207   -1.718826 C.ar      1 <1>        -0.024621 
     30 C          -1.951715   -0.816262    0.065558 C.ar      1 <1>        -0.024621 
     31 O           1.897437    5.104086    4.130128 O.3       1 <1>        -0.329104 
     32 O           0.575208    4.887594   -0.938712 O.3       1 <1>        -0.389012 
     33 O          -0.866573   -6.068057   -2.859325 O.3       1 <1>        -0.357261 
     34 C           1.438003   -4.116161    0.186926 C.ar      1 <1>        -0.051998 
     35 O           0.105596   -7.562561   -0.602792 O.3       1 <1>        -0.357274 
     36 O          -3.013493   -4.593953   -1.656399 O.3       1 <1>        -0.359731 
     37 O          -0.788990   -2.050579    1.915124 O.3       1 <1>        -0.359731 
     38 H          -0.309881    2.472336    1.273576 H         1 <1>         0.065433 
     39 H           2.291951    2.961406   -0.300373 H         1 <1>         0.063015 
     40 H           3.313959    3.139219    1.946942 H         1 <1>         0.032408 
     41 H           1.721931    2.925699    2.720313 H         1 <1>         0.032408 
     42 H           0.323850    6.223362    1.407745 H         1 <1>         0.032382 
     43 H          -0.078601    4.800306    2.399060 H         1 <1>         0.032382 
     44 H          -1.144097    4.572246    0.182890 H         1 <1>         0.062110 
     45 H          -3.156083    2.396444   -2.386085 H         1 <1>         0.067735 
     46 H           1.683808   -1.392700    0.946700 H         1 <1>         0.067735 
     47 H          -3.983231    0.225456   -2.611746 H         1 <1>         0.062527 
     48 H           1.109206   -1.448189   -2.077345 H         1 <1>         0.062526 
     49 H          -1.579297   -4.220907    0.678463 H         1 <1>         0.066901 
     50 H          -0.164099   -3.473960   -2.837038 H         1 <1>         0.064993 
     51 H           1.487697   -6.139254    1.127609 H         1 <1>         0.064421 
     52 H           2.714694    6.263846    0.472772 H         1 <1>         0.210848 
     53 H          -3.608146   -2.244280   -2.643967 H         1 <1>         0.064912 
     54 H          -1.686230    0.124290    0.524516 H         1 <1>         0.064912 
     55 H           2.233794    5.564161    4.892085 H         1 <1>         0.220301 
     56 H           0.436163    5.815563   -1.097729 H         1 <1>         0.209892 
     57 H          -1.497775   -5.488128   -3.273869 H         1 <1>         0.217422 
     58 H           2.023833   -3.664022    0.977031 H         1 <1>         0.062425 
     59 H          -0.376333   -7.878766   -1.360505 H         1 <1>         0.217422 
     60 H          -2.900700   -5.330746   -1.065512 H         1 <1>         0.217315 
     61 H          -0.691015   -1.181674    2.287544 H         1 <1>         0.217315 
@<TRIPOS>BOND
     1    4    1 1    
     2    5    1 1    
     3    1    7 1    
     4    1   28 1    
     5    2    3 1    
     6    2    6 1    
     7    8    2 1    
     8    2   38 1    
     9    3    4 1    
    10    3    9 1    
    11    3   39 1    
    12    4   40 1    
    13    4   41 1    
    14    6    5 1    
    15    5   42 1    
    16    5   43 1    
    17    6   32 1    
    18    6   44 1    
    19    7   21 2    
    20    7   31 1    
    21   10    8 1    
    22    9   11 1    
    23   12   10 1    
    24   10   24 2    
    25   11   13 1    
    26   11   25 2    
    27   15   12 2    
    28   12   45 1    
    29   13   16 2    
    30   13   46 1    
    31   14   17 1    
    32   20   14 2    
    33   14   33 1    
    34   18   15 1    
    35   15   47 1    
    36   16   26 1    
    37   16   48 1    
    38   17   27 2    
    39   17   35 1    
    40   18   29 1    
    41   30   18 2    
    42   22   19 2    
    43   19   23 1    
    44   19   49 1    
    45   26   20 1    
    46   20   50 1    
    47   22   30 1    
    48   22   37 1    
    49   23   29 2    
    50   23   36 1    
    51   26   34 2    
    52   27   34 1    
    53   27   51 1    
    54   28   52 1    
    55   29   53 1    
    56   30   54 1    
    57   31   55 1    
    58   32   56 1    
    59   33   57 1    
    60   34   58 1    
    61   35   59 1    
    62   36   60 1    
    63   37   61 1    
@<TRIPOS>SUBSTRUCTURE
     1 ****       19 TEMP              0 ****  ****    0 ROOT 
@<TRIPOS>NORMAL
@<TRIPOS>FF_PBC
FORCE_FIELD_SETUP_FEATURE Force Field Setup information
v1.0  0 0.000000 0.000000 0.000000 0.000000 0.000000 0.000000 NONE 0 0 0 0 1 0 0 0 0 0 0 0 0
