@<TRIPOS>MOLECULE
MOL005823
   16    15     1     1     0
SMALL
GASTEIGER


@<TRIPOS>ATOM
      1 C           0.761345   -0.024980    0.000116 C.3       1 <1>        -0.008975 
      2 C          -0.640635   -0.605450    0.000001 C.2       1 <1>        -0.077542 
      3 C           0.886911    1.519476   -0.000046 C.3       1 <1>         0.047852 
      4 C          -0.710557   -2.117672   -0.000070 C.3       1 <1>        -0.043967 
      5 C          -1.759030    0.135583   -0.000039 C.2       1 <1>        -0.099638 
      6 O           2.286099    1.858199    0.000018 O.3       1 <1>        -0.394696 
      7 H           1.289692   -0.400695    0.890855 H         1 <1>         0.033194 
      8 H           1.289911   -0.400882   -0.890413 H         1 <1>         0.033194 
      9 H           0.402873    1.933289   -0.901501 H         1 <1>         0.056010 
     10 H           0.402752    1.933497    0.901247 H         1 <1>         0.056010 
     11 H          -1.742697   -2.499782    0.000060 H         1 <1>         0.027428 
     12 H          -0.202711   -2.509298   -0.894228 H         1 <1>         0.027428 
     13 H          -0.202453   -2.509412    0.893895 H         1 <1>         0.027428 
     14 H          -2.742939   -0.332514   -0.000126 H         1 <1>         0.053433 
     15 H          -1.763724    1.223066    0.000008 H         1 <1>         0.053433 
     16 H           2.445165    2.797675   -0.000075 H         1 <1>         0.209408 
@<TRIPOS>BOND
     1    1    2 1    
     2    1    3 1    
     3    1    7 1    
     4    1    8 1    
     5    2    4 1    
     6    2    5 2    
     7    3    6 1    
     8    3    9 1    
     9    3   10 1    
    10    4   11 1    
    11    4   12 1    
    12    4   13 1    
    13    5   14 1    
    14    5   15 1    
    15    6   16 1    
@<TRIPOS>SUBSTRUCTURE
     1 ****        1 TEMP              0 ****  ****    0 ROOT 
@<TRIPOS>NORMAL
@<TRIPOS>FF_PBC
FORCE_FIELD_SETUP_FEATURE Force Field Setup information
v1.0  0 0.000000 0.000000 0.000000 0.000000 0.000000 0.000000 NONE 0 0 0 0 1 0 0 0 0 0 0 0 0
