@<TRIPOS>MOLECULE
MOL002240
   24    25     1     1     0
SMALL
GASTEIGER


@<TRIPOS>ATOM
      1 C          -2.606049    0.027345   -0.019643 C.ar      1 <1>         0.075822 
      2 C          -2.068112    1.404877    0.044397 C.ar      1 <1>        -0.018220 
      3 C          -0.669623    1.649115    0.080863 C.ar      1 <1>         0.061981 
      4 C           0.263914    0.492401    0.003604 C.ar      1 <1>         0.065132 
      5 C          -0.253487   -0.835292   -0.024008 C.ar      1 <1>         0.096621 
      6 C          -1.716183   -1.061909   -0.036713 C.ar      1 <1>        -0.000670 
      7 C           1.767865    0.603262   -0.069395 C.2       1 <1>         0.191440 
      8 C           2.544161   -0.639527   -0.039330 C.2       1 <1>         0.011852 
      9 C           1.933738   -1.830561   -0.034245 C.2       1 <1>         0.061017 
     10 O           0.598280   -1.945221   -0.050122 O.3       1 <1>        -0.312910 
     11 C          -0.216399    3.087840    0.210487 C.2       1 <1>         0.292091 
     12 O           0.817079    3.369016    0.795279 O.2       1 <1>        -0.259405 
     13 O           2.351720    1.667864   -0.174795 O.2       1 <1>        -0.287094 
     14 O          -3.990159   -0.160278   -0.053406 O.3       1 <1>        -0.359728 
     15 C           2.655706   -3.153331   -0.014151 C.3       1 <1>        -0.017388 
     16 O          -0.982597    4.055836   -0.300305 O.3       1 <1>        -0.327473 
     17 H          -2.769415    2.231768    0.078161 H         1 <1>         0.065117 
     18 H          -2.085301   -2.080770   -0.066322 H         1 <1>         0.066946 
     19 H           3.631046   -0.566286   -0.027418 H         1 <1>         0.067855 
     20 H          -4.265869   -1.068645   -0.107152 H         1 <1>         0.217315 
     21 H           3.749252   -3.031105   -0.000978 H         1 <1>         0.029714 
     22 H           2.354266   -3.717039    0.881355 H         1 <1>         0.029714 
     23 H           2.377257   -3.731235   -0.908022 H         1 <1>         0.029714 
     24 H          -0.614088    4.921872   -0.161143 H         1 <1>         0.220555 
@<TRIPOS>BOND
     1    1    2 1    
     2    1    6 2    
     3    1   14 1    
     4    2    3 2    
     5    2   17 1    
     6    3    4 1    
     7    3   11 1    
     8    4    5 2    
     9    4    7 1    
    10    5    6 1    
    11    5   10 1    
    12    6   18 1    
    13    7    8 1    
    14    7   13 2    
    15    8    9 2    
    16    8   19 1    
    17    9   10 1    
    18    9   15 1    
    19   11   12 2    
    20   11   16 1    
    21   14   20 1    
    22   15   21 1    
    23   15   22 1    
    24   15   23 1    
    25   16   24 1    
@<TRIPOS>SUBSTRUCTURE
     1 ****        1 TEMP              0 ****  ****    0 ROOT 
@<TRIPOS>NORMAL
@<TRIPOS>FF_PBC
FORCE_FIELD_SETUP_FEATURE Force Field Setup information
v1.0  0 0.000000 0.000000 0.000000 0.000000 0.000000 0.000000 NONE 0 0 0 0 1 0 0 0 0 0 0 0 0
