@<TRIPOS>MOLECULE
MOL001907
   24    24     1     1     0
SMALL
GASTEIGER


@<TRIPOS>ATOM
      1 O          -2.052775    0.098667    0.000281 O.3       1 <1>        -0.311706 
      2 O           3.652007   -2.334585    0.001093 O.3       1 <1>        -0.357199 
      3 O           2.610196    2.479819   -0.002143 O.3       1 <1>        -0.357199 
      4 O           4.513473    0.412634   -0.000409 O.3       1 <1>        -0.355395 
      5 O          -1.477999   -2.067057   -0.000909 O.2       1 <1>        -0.259224 
      6 C           0.325408   -0.541113   -0.000566 C.ar      1 <1>         0.051494 
      7 C           0.736988    0.807159   -0.001341 C.ar      1 <1>        -0.016369 
      8 C           1.347284   -1.616824    0.000181 C.ar      1 <1>        -0.016369 
      9 C           2.711229   -1.303805    0.000272 C.ar      1 <1>         0.105520 
     10 C           2.182379    1.148910   -0.001343 C.ar      1 <1>         0.105520 
     11 C           3.147191    0.115430   -0.000505 C.ar      1 <1>         0.132457 
     12 C          -1.146686   -0.891474   -0.000434 C.2       1 <1>         0.293965 
     13 C          -3.423861   -0.348772    0.000762 C.3       1 <1>         0.054573 
     14 C          -4.334210    0.902258    0.001991 C.3       1 <1>        -0.040969 
     15 H          -0.004550    1.598767   -0.001921 H         1 <1>         0.065181 
     16 H           1.044280   -2.658272    0.000694 H         1 <1>         0.065181 
     17 H          -3.639587   -0.951259   -0.898581 H         1 <1>         0.056314 
     18 H          -3.638643   -0.952235    0.899681 H         1 <1>         0.056314 
     19 H          -5.395744    0.608206    0.002394 H         1 <1>         0.025189 
     20 H          -4.132857    1.511356    0.897015 H         1 <1>         0.025189 
     21 H          -4.133824    1.512428   -0.892517 H         1 <1>         0.025189 
     22 H           4.541154   -1.993631    0.001367 H         1 <1>         0.217423 
     23 H           1.899674    3.111585   -0.003143 H         1 <1>         0.217423 
     24 H           4.669973    1.352308   -0.000920 H         1 <1>         0.217501 
@<TRIPOS>BOND
     1   12    1 1    
     2    1   13 1    
     3    9    2 1    
     4    2   22 1    
     5   10    3 1    
     6    3   23 1    
     7   11    4 1    
     8    4   24 1    
     9   12    5 2    
    10    6    7 2    
    11    8    6 1    
    12    6   12 1    
    13    7   10 1    
    14    7   15 1    
    15    9    8 2    
    16    8   16 1    
    17    9   11 1    
    18   10   11 2    
    19   13   14 1    
    20   13   17 1    
    21   13   18 1    
    22   14   19 1    
    23   14   20 1    
    24   14   21 1    
@<TRIPOS>SUBSTRUCTURE
     1 ****        6 TEMP              0 ****  ****    0 ROOT 
@<TRIPOS>NORMAL
@<TRIPOS>FF_PBC
FORCE_FIELD_SETUP_FEATURE Force Field Setup information
v1.0  0 0.000000 0.000000 0.000000 0.000000 0.000000 0.000000 NONE 0 0 0 0 1 0 0 0 0 0 0 0 0
