@<TRIPOS>MOLECULE
MOL000356
   81    85     1     1     0
SMALL
GASTEIGER


@<TRIPOS>ATOM
      1 C           1.424820   -0.445820    0.539978 C.3       1 <1>        -0.023270 
      2 C           1.487144    1.131568    0.440054 C.3       1 <1>        -0.031250 
      3 C          -0.108317   -0.920056    0.701346 C.3       1 <1>        -0.023070 
      4 C           2.336897   -0.861068    1.758596 C.3       1 <1>        -0.046352 
      5 C           2.103124   -1.127532   -0.714273 C.3       1 <1>        -0.058792 
      6 C           2.936304    1.712285    0.441329 C.3       1 <1>        -0.025792 
      7 C           0.629844    1.648078   -0.740425 C.3       1 <1>        -0.049126 
      8 C          -1.035441   -0.285124   -0.417912 C.3       1 <1>        -0.029439 
      9 C          -0.254577   -2.471380    0.531256 C.3       1 <1>        -0.046560 
     10 C           3.774903   -0.253580    1.764369 C.3       1 <1>        -0.046822 
     11 C           3.715152    1.301232    1.722712 C.3       1 <1>        -0.028382 
     12 C           3.179713    3.247079    0.372498 C.3       1 <1>        -0.016804 
     13 C          -0.854201    1.261649   -0.502015 C.3       1 <1>        -0.048916 
     14 C          -2.546011   -0.781553   -0.573864 C.3       1 <1>        -0.025247 
     15 C          -1.723114   -2.985139    0.521531 C.3       1 <1>        -0.048618 
     16 C           5.070047    2.004087    1.445695 C.3       1 <1>        -0.046794 
     17 C           4.646091    3.397767    0.891379 C.3       1 <1>        -0.045748 
     18 C           3.017049    3.968281   -0.958054 C.2       1 <1>        -0.076322 
     19 C          -2.542362   -2.354666   -0.646305 C.3       1 <1>        -0.027845 
     20 C          -3.124945   -0.258821   -1.948528 C.3       1 <1>        -0.044730 
     21 C           2.236537    5.265290   -0.926341 C.3       1 <1>        -0.043768 
     22 C           3.548934    3.518096   -2.104458 C.2       1 <1>        -0.099438 
     23 C          -3.915661   -3.091653   -0.929137 C.3       1 <1>        -0.005589 
     24 C          -4.108438   -1.223536   -2.680889 C.3       1 <1>        -0.025831 
     25 C          -4.891405   -2.171055   -1.736941 C.3       1 <1>         0.060637 
     26 O          -5.793260   -1.450855   -0.879365 O.3       1 <1>        -0.391248 
     27 H           1.041309    1.595627    1.323365 H         1 <1>         0.030922 
     28 H           3.455211    1.319349   -0.435556 H         1 <1>         0.031459 
     29 C          -3.474372   -0.225077    0.564731 C.3       1 <1>        -0.059019 
     30 C          -0.616751   -0.589788    2.152698 C.3       1 <1>        -0.058784 
     31 H          -1.940484   -2.558779   -1.546676 H         1 <1>         0.031210 
     32 H          -0.594376   -0.631210   -1.357817 H         1 <1>         0.031155 
     33 C          -3.647470   -4.382598   -1.783443 C.3       1 <1>        -0.057190 
     34 C          -4.652449   -3.597333    0.352849 C.3       1 <1>        -0.057190 
     35 C           3.176279    1.870213    3.084586 C.3       1 <1>        -0.059280 
     36 H           2.429586   -1.956111    1.818214 H         1 <1>         0.027095 
     37 H           1.911765   -0.541733    2.711969 H         1 <1>         0.027095 
     38 H           3.086845   -0.737200   -0.979140 H         1 <1>         0.023533 
     39 H           1.527133   -1.061949   -1.642048 H         1 <1>         0.023533 
     40 H           2.294676   -2.193439   -0.527946 H         1 <1>         0.023533 
     41 H           0.677317    2.745142   -0.790526 H         1 <1>         0.026829 
     42 H           1.004884    1.262834   -1.700664 H         1 <1>         0.026829 
     43 H           0.304216   -3.003681    1.316484 H         1 <1>         0.027087 
     44 H           0.147075   -2.804348   -0.435020 H         1 <1>         0.027087 
     45 H           4.357423   -0.640714    0.917282 H         1 <1>         0.027078 
     46 H           4.313651   -0.569657    2.672965 H         1 <1>         0.027078 
     47 H           2.472383    3.695807    1.087800 H         1 <1>         0.034836 
     48 H          -1.433994    1.698067   -1.329420 H         1 <1>         0.026837 
     49 H          -1.186107    1.755142    0.422598 H         1 <1>         0.026837 
     50 H          -1.669126   -4.077193    0.392034 H         1 <1>         0.026846 
     51 H          -2.205173   -2.820129    1.492574 H         1 <1>         0.026846 
     52 H           5.717180    2.072871    2.335007 H         1 <1>         0.027078 
     53 H           5.624672    1.451845    0.668481 H         1 <1>         0.027078 
     54 H           4.694242    4.172101    1.675005 H         1 <1>         0.027123 
     55 H           5.343153    3.700956    0.092698 H         1 <1>         0.027123 
     56 H          -3.621278    0.716277   -1.811028 H         1 <1>         0.027149 
     57 H          -2.329687   -0.072345   -2.688498 H         1 <1>         0.027149 
     58 H           1.221041    5.107731   -0.534528 H         1 <1>         0.027436 
     59 H           2.146090    5.725251   -1.921458 H         1 <1>         0.027436 
     60 H           2.758789    5.976360   -0.269085 H         1 <1>         0.027436 
     61 H           3.416736    4.058920   -3.040619 H         1 <1>         0.053440 
     62 H           4.143834    2.610670   -2.165911 H         1 <1>         0.053440 
     63 H          -3.549277   -1.856190   -3.389513 H         1 <1>         0.029037 
     64 H          -4.819534   -0.634187   -3.284140 H         1 <1>         0.029037 
     65 H          -5.552333   -2.803803   -2.357904 H         1 <1>         0.059852 
     66 H          -6.411557   -0.897550   -1.346575 H         1 <1>         0.209800 
     67 H          -3.074818    0.688878    1.015813 H         1 <1>         0.023525 
     68 H          -3.647208   -0.942220    1.369627 H         1 <1>         0.023525 
     69 H          -4.471103    0.065163    0.220287 H         1 <1>         0.023525 
     70 H          -0.158255   -1.251419    2.899999 H         1 <1>         0.023533 
     71 H          -1.675427   -0.757755    2.301246 H         1 <1>         0.023533 
     72 H          -0.449644    0.445458    2.465975 H         1 <1>         0.023533 
     73 H          -4.576916   -4.947960   -1.955623 H         1 <1>         0.023587 
     74 H          -2.946875   -5.066889   -1.285378 H         1 <1>         0.023587 
     75 H          -3.228074   -4.142636   -2.771317 H         1 <1>         0.023587 
     76 H          -4.068631   -4.364006    0.883193 H         1 <1>         0.023587 
     77 H          -4.880406   -2.794652    1.061861 H         1 <1>         0.023587 
     78 H          -5.614031   -4.055935    0.074880 H         1 <1>         0.023587 
     79 H           3.243059    2.963385    3.157323 H         1 <1>         0.023516 
     80 H           2.135987    1.613023    3.311542 H         1 <1>         0.023516 
     81 H           3.791928    1.471142    3.904885 H         1 <1>         0.023516 
@<TRIPOS>BOND
     1    1    2 1    
     2    1    3 1    
     3    1    4 1    
     4    1    5 1    
     5    2    6 1    
     6    2    7 1    
     7    2   27 1    
     8    3    8 1    
     9    3    9 1    
    10    3   30 1    
    11    4   10 1    
    12    4   36 1    
    13    4   37 1    
    14    5   38 1    
    15    5   39 1    
    16    5   40 1    
    17    6   11 1    
    18    6   12 1    
    19    6   28 1    
    20    7   13 1    
    21    7   41 1    
    22    7   42 1    
    23    8   13 1    
    24    8   14 1    
    25    8   32 1    
    26    9   15 1    
    27    9   43 1    
    28    9   44 1    
    29   10   11 1    
    30   10   45 1    
    31   10   46 1    
    32   11   16 1    
    33   11   35 1    
    34   12   17 1    
    35   12   18 1    
    36   12   47 1    
    37   13   48 1    
    38   13   49 1    
    39   14   19 1    
    40   14   20 1    
    41   14   29 1    
    42   15   19 1    
    43   15   50 1    
    44   15   51 1    
    45   16   17 1    
    46   16   52 1    
    47   16   53 1    
    48   17   54 1    
    49   17   55 1    
    50   18   21 1    
    51   18   22 2    
    52   19   23 1    
    53   19   31 1    
    54   20   24 1    
    55   20   56 1    
    56   20   57 1    
    57   21   58 1    
    58   21   59 1    
    59   21   60 1    
    60   22   61 1    
    61   22   62 1    
    62   23   25 1    
    63   23   33 1    
    64   23   34 1    
    65   24   25 1    
    66   24   63 1    
    67   24   64 1    
    68   25   26 1    
    69   25   65 1    
    70   26   66 1    
    71   29   67 1    
    72   29   68 1    
    73   29   69 1    
    74   30   70 1    
    75   30   71 1    
    76   30   72 1    
    77   33   73 1    
    78   33   74 1    
    79   33   75 1    
    80   34   76 1    
    81   34   77 1    
    82   34   78 1    
    83   35   79 1    
    84   35   80 1    
    85   35   81 1    
@<TRIPOS>SUBSTRUCTURE
     1 ****        1 TEMP              0 ****  ****    0 ROOT 
@<TRIPOS>NORMAL
@<TRIPOS>FF_PBC
FORCE_FIELD_SETUP_FEATURE Force Field Setup information
v1.0  0 0.000000 0.000000 0.000000 0.000000 0.000000 0.000000 NONE 0 0 0 0 1 0 0 0 0 0 0 0 0
