@<TRIPOS>MOLECULE
MOL000067
   19    18     1     1     0
SMALL
GASTEIGER


@<TRIPOS>ATOM
      1 C           1.838885    0.471768    0.326966 C.2       1 <1>         0.276794 
      2 N           0.584681   -1.649729    0.538199 N.3       1 <1>        -0.319113 
      3 C           0.759757   -0.412103   -0.261035 C.3       1 <1>         0.093725 
      4 C          -0.575812    0.387507   -0.352534 C.3       1 <1>        -0.022224 
      5 C          -1.666118   -0.377955   -1.153001 C.3       1 <1>        -0.060775 
      6 C          -1.106496    0.744135    1.062249 C.3       1 <1>        -0.060775 
      7 O           2.375754    0.214740    1.393290 O.2       1 <1>        -0.263428 
      8 O           2.167406    1.546210   -0.396291 O.3       1 <1>        -0.330090 
      9 H           0.043770   -2.401848   -0.019184 H         1 <1>         0.118929 
     10 H           1.544450   -2.051525    0.835591 H         1 <1>         0.118929 
     11 H           1.106021   -0.670161   -1.276772 H         1 <1>         0.056474 
     12 H          -0.376124    1.328142   -0.896345 H         1 <1>         0.031536 
     13 H          -2.544756    0.269762   -1.302985 H         1 <1>         0.023293 
     14 H          -1.283284   -0.674206   -2.142092 H         1 <1>         0.023293 
     15 H          -1.997954   -1.279406   -0.616195 H         1 <1>         0.023293 
     16 H          -2.041946    1.320075    0.985047 H         1 <1>         0.023293 
     17 H          -0.372123    1.350959    1.613476 H         1 <1>         0.023293 
     18 H          -1.307614   -0.172306    1.637998 H         1 <1>         0.023293 
     19 H           2.851303    2.055841    0.023516 H         1 <1>         0.220259 
@<TRIPOS>BOND
     1    1    3 1    
     2    1    7 2    
     3    1    8 1    
     4    3    2 1    
     5    2    9 1    
     6    2   10 1    
     7    3    4 1    
     8    3   11 1    
     9    4    5 1    
    10    4    6 1    
    11    4   12 1    
    12    5   13 1    
    13    5   14 1    
    14    5   15 1    
    15    6   16 1    
    16    6   17 1    
    17    6   18 1    
    18    8   19 1    
@<TRIPOS>SUBSTRUCTURE
     1 ****        1 TEMP              0 ****  ****    0 ROOT 
@<TRIPOS>NORMAL
@<TRIPOS>FF_PBC
FORCE_FIELD_SETUP_FEATURE Force Field Setup information
v1.0  0 0.000000 0.000000 0.000000 0.000000 0.000000 0.000000 NONE 0 0 0 0 1 0 0 0 0 0 0 0 0
