@<TRIPOS>MOLECULE
MOL000421
   14    14     1     1     0
SMALL
GASTEIGER


@<TRIPOS>ATOM
      1 C           1.846579    0.770568   -0.000031 C.2       1 <1>         0.292706 
      2 C           0.528789    0.027182   -0.000012 C.ar      1 <1>         0.064325 
      3 C          -0.750896    0.776539   -0.000048 C.ar      1 <1>        -0.045982 
      4 C          -1.948738    0.063722   -0.000029 C.ar      1 <1>        -0.042856 
      5 C          -1.894665   -1.416691    0.000027 C.ar      1 <1>         0.027595 
      6 N          -0.693504   -2.058301    0.000059 N.ar      1 <1>        -0.262486 
      7 C           0.491863   -1.377925    0.000041 C.ar      1 <1>         0.040407 
      8 O           2.896096    0.145440    0.000004 O.2       1 <1>        -0.259376 
      9 O           1.849983    2.106182   -0.000086 O.3       1 <1>        -0.327453 
     10 H          -0.756320    1.861737   -0.000090 H         1 <1>         0.062620 
     11 H          -2.903470    0.579706   -0.000055 H         1 <1>         0.063285 
     12 H          -2.811559   -1.996097    0.000043 H         1 <1>         0.082934 
     13 H           1.415016   -1.947307    0.000069 H         1 <1>         0.083725 
     14 H           2.730825    2.465443   -0.000094 H         1 <1>         0.220556 
@<TRIPOS>BOND
     1    1    2 1    
     2    1    8 2    
     3    1    9 1    
     4    2    3 1    
     5    2    7 2    
     6    3    4 2    
     7    3   10 1    
     8    4    5 1    
     9    4   11 1    
    10    5    6 2    
    11    5   12 1    
    12    6    7 1    
    13    7   13 1    
    14    9   14 1    
@<TRIPOS>SUBSTRUCTURE
     1 ****        1 TEMP              0 ****  ****    0 ROOT 
@<TRIPOS>NORMAL
@<TRIPOS>FF_PBC
FORCE_FIELD_SETUP_FEATURE Force Field Setup information
v1.0  0 0.000000 0.000000 0.000000 0.000000 0.000000 0.000000 NONE 0 0 0 0 1 0 0 0 0 0 0 0 0
