@<TRIPOS>MOLECULE
MOL002050
   20    20     1     1     0
SMALL
GASTEIGER


@<TRIPOS>ATOM
      1 C          12.380715   -6.959558   -0.018848 C.ar      1 <1>         0.048868 
      2 C          12.262440   -8.488357    0.137059 C.ar      1 <1>        -0.016535 
      3 C          10.941429   -9.168425    0.091338 C.ar      1 <1>         0.103181 
      4 C           9.655163   -8.318458   -0.105858 C.ar      1 <1>         0.105443 
      5 C           9.781995   -6.850923   -0.247428 C.ar      1 <1>        -0.028418 
      6 C          11.141285   -6.167704   -0.203917 C.ar      1 <1>        -0.046280 
      7 O          10.863354  -10.558344    0.225288 O.3       1 <1>        -0.357254 
      8 C          13.708566   -6.226524    0.016382 C.2       1 <1>         0.291319 
      9 O          13.703999   -5.028555    0.243233 O.2       1 <1>        -0.259428 
     10 O          14.897743   -6.798963   -0.190884 O.3       1 <1>        -0.327489 
     11 O           8.370183   -8.878296   -0.156187 O.3       1 <1>        -0.345349 
     12 C           8.155645  -10.289102   -0.000558 C.3       1 <1>         0.043135 
     13 H          13.151632   -9.086829    0.289139 H         1 <1>         0.065179 
     14 H           8.886048   -6.255314   -0.384939 H         1 <1>         0.064431 
     15 H          11.195532   -5.089227   -0.310831 H         1 <1>         0.062608 
     16 H          11.700459  -10.989010    0.353059 H         1 <1>         0.217422 
     17 H          14.859565   -7.711428   -0.440531 H         1 <1>         0.220555 
     18 H           7.073093  -10.473823   -0.064477 H         1 <1>         0.052871 
     19 H           8.648874  -10.853737   -0.806292 H         1 <1>         0.052871 
     20 H           8.506742  -10.635712    0.983469 H         1 <1>         0.052871 
@<TRIPOS>BOND
     1    1    2 2    
     2    1    6 1    
     3    1    8 1    
     4    2    3 1    
     5    2   13 1    
     6    3    4 2    
     7    3    7 1    
     8    4    5 1    
     9    4   11 1    
    10    5    6 2    
    11    5   14 1    
    12    6   15 1    
    13    7   16 1    
    14    8    9 2    
    15    8   10 1    
    16   10   17 1    
    17   11   12 1    
    18   12   18 1    
    19   12   19 1    
    20   12   20 1    
@<TRIPOS>SUBSTRUCTURE
     1 ****        1 TEMP              0 ****  ****    0 ROOT 
@<TRIPOS>NORMAL
@<TRIPOS>FF_PBC
FORCE_FIELD_SETUP_FEATURE Force Field Setup information
v1.0  0 0.000000 0.000000 0.000000 0.000000 0.000000 0.000000 NONE 0 0 0 0 1 0 0 0 0 0 0 0 0
